<routes>
<?xml version="1.0" encoding="UTF-8"?>

<!-- generated on 2025-05-03 14:32:36 by Eclipse SUMO duarouter Version 1.21.0
<duarouterConfiguration xmlns:xsi="http://www.w3.org/2001/XMLSchema-instance" xsi:noNamespaceSchemaLocation="http://sumo.dlr.de/xsd/duarouterConfiguration.xsd">

    <input>
        <net-file value="ksu_clean.net.xml"/>
        <route-files value="trips_passenger.trips.xml"/>
    </input>

    <output>
        <output-file value="routes_passenger.rou.xml"/>
    </output>

    <processing>
        <remove-loops value="true"/>
        <repair value="true"/>
    </processing>

    <report>
        <ignore-errors value="true"/>
    </report>

</duarouterConfiguration>
-->

    <vType id="passenger" vClass="passenger"/>
    <vehicle id="0" type="passenger" depart="0.00">
        <route edges="300801473#0 300801474#0 300801474#1 300801472 539292340#0 -300801471 539292341#1 192514859#0 192514859#1 192514859#2 1036797580#7 269657869#0 269657869#1 269657869#2 569897249 784032543#3 133793473 133793719#2 133793719#3 133793719#4 502469671#0 502469671#1 502469671#2 502469671#3 502469671#4 502469671#5 502469671#6 502469671#7 701841242 133793167#0 -133793455 133794101#2 133794101#3 133794101#4 133793444#0 133793444#1 133793444#2 133793444#3 133793444#4 989819623#1 989819623#2 133794220#5 133794220#0 133794220#1 133794220#2 133794054 133793804 133793310 133793867 133793293"/>
    </vehicle>
    <vehicle id="1" type="passenger" depart="1.00">
        <route edges="111232141#5 111232141#6 111232141#7 111232141#8 416605164#15 416605164#16 678564273 783932765#2 783932765#3 783932765#4 416605141 713369661#1 636313139 783932765#10 783932765#11 783932765#12 1301530399 38095421#5 38095421#6 38095421#7 38095421#8 710724375 40639444#1 40639444#2 40639444#3 266895876 38095421#23 38095421#24 38095421#25 1378001625#0 1378001625#1 1378001625#2 1378001625#3 1377973959 535677685#2 535677685#3 535677685#4 39002859 1375772459#1 1375772459#2 1340228617#0 1340228617#1"/>
    </vehicle>
    <vehicle id="2" type="passenger" depart="2.00">
        <route edges="539032268 -221413273#7 -221413273#6 -221413273#5 -221413273#4 -221413273#3 -221413273#2 -221413273#1 -221413273#0 416605164#30 569790082 713369663#2 991887360 991887361 569790080 133973488#1 539502453#0 539502453#1 539502453#2 539502453#3 539502453#4 539502453#5 539502453#6 539502453#7 539502453#8 539502453#9 539502453#10 539502453#11 539502453#12 539502453#13 539502453#14 539502453#15 608060527 -300798395#4 -300798395#3 -300798395#2 -300798395#1 -300798395#0 -192514858#12 -192514858#11 192514860 539292341#0 539292341#1 192514859#0"/>
    </vehicle>
    <vehicle id="3" type="passenger" depart="3.00">
        <route edges="221411033#0 221411033#1 -221411069#3 221411030#0 -221411039#4 -221411039#3 -221411039#2 -221411039#1 -221411039#0 38095421#24 221411071 39002853#2 39002853#3 39002853#4 39002853#5 39002853#6 39002853#7 39002853#8 39002853#9 39002853#10 39002853#11 39002853#12 39002853#13 39002853#14 39002853#15 39002853#16 39002853#17 39002853#18 39002853#19 39231079#0 39231079#1 416605164#2 38095421#3 38095421#4 38095421#5 -111223908#4 -111223908#3 -111223908#2 -111223908#1 -111223908#0 -111223919#6 111223911 111221656#15"/>
    </vehicle>
    <vehicle id="4" type="passenger" depart="4.00">
        <route edges="221411543#1 221411516#0 221411516#1 221411516#2 221411516#3 -221411518 958828776#10 958828776#11 958828776#12 1304594033 -539502464 111220510#17 678097284 111220513#1 111220513#2 111220513#3 111220513#4 111220513#5 -221411959#5 221411952#0"/>
    </vehicle>
    <vehicle id="5" type="passenger" depart="5.00">
        <route edges="111236652#3 111236652#4 678580406 111236636#1 111236636#2 111236658#0 111236658#1 111236658#2 111236658#3 38095421#1 38095421#2 38095421#3 710724376#1 710724376#2 416605207 964275037#1 964275037#2 964275037#3 964275037#4 964275037#5 535677693#0 535677693#1 535677693#2 535677693#3 535677693#4 535677693#5 38895059#6 458485629#2 458485629#3 38895049#0 38895049#1"/>
    </vehicle>
    <vehicle id="6" type="passenger" depart="6.00">
        <route edges="-221411953#2 -221411953#1 -221411953#0 784032538#6 784032538#7 784032538#8 784032538#9 784032538#10 784032538#11 784032538#12 784032538#13 784032538#14 784032538#15 784032538#16 784032538#17 784032538#18 784032538#19 784032538#20 784032538#21 784032538#22 784032538#23 784032538#24 784032538#25 569571504 569571505 958828776#0 958828776#1 -221411002#2 -221411002#1 -221411002#0 221411018#1"/>
    </vehicle>
    <vehicle id="7" type="passenger" depart="7.00">
        <route edges="-40940168#4 -40940168#3 -40940168#2 -40940168#1 -40940168#0 539888563#3 539888563#4 40940176#4 40940175#0 678520885 40940185#1 40940185#2 40940185#3 40940185#4 1118245276 -539857434#4 -539857434#3 -539857434#2 -539857434#1 -539857434#0 -53447887#4 53447880#0 53447880#1 53447880#2 53447886#7 53447886#8 53447886#9 266901377#0 266901377#1 266901377#2 266901377#3 39002853#0 39002853#1 39002853#2 39002853#3 39002853#4 39002853#5 39002853#6 39002853#7 39002853#8 39002853#9 39002853#10 39002853#11 39002853#12 39002853#13 39002853#14 39002853#15 39002853#16 39002853#17 39002853#18 569565030 38095421#7 38095421#8 38095421#9 -111221643#9 -111221643#8 111223925#0 111223925#1"/>
    </vehicle>
    <vehicle id="8" type="passenger" depart="8.00">
        <route edges="266895633 40639433#3 710724374 39002853#16 39002853#17 39002853#18 39002853#19 39231079#0 39231079#1 416605164#2 416605164#3 416605164#4 416605164#5 416605164#6 416605164#7 1132178741 181124268#1 181124268#2 159182902 713369663#0 678550117 416605164#24 416605164#25 416605164#26 416605164#27 416605164#28 416605164#29 416605164#30 569790082 713369663#2 991887360 133794033 133793923#0 133793923#1 133793732#0 133793732#1 133793732#2 133793727#2 133793727#3 133793727#4 133793727#5 133793270#0 133793270#1 995903311#3 995903311#4 995903311#5 995903311#6 995903311#7 133794203#0 636147960#0 636147960#1 681654708 636147959#1"/>
    </vehicle>
    <vehicle id="9" type="passenger" depart="9.00">
        <route edges="-1306176942#0 -221410951#5 -221410951#4 -221410951#3 -221410951#2 -221410951#1 -221410951#0 958828776#9 958828776#10 958828776#11 958828776#12 1304594033 -539502464 111220510#17 678097284 111220513#1 111220513#2 111220513#3 111220513#4 111220513#5 111220513#6 111221643#0 111221643#1 111221643#2 111221643#3 111221643#4 111221656#8 111221656#9 -539484998 111223919#1"/>
    </vehicle>
    <vehicle id="10" type="passenger" depart="10.00">
        <route edges="1311808790#0 994922068#0 636313137#4 133793732#2 133793727#2 133793727#3 133793727#4 133793727#5 133793727#6 133793727#0 133793906#0 133793906#1 133973488#0 133973488#1 539502453#0 539502453#1 539502453#2 539502453#3 539502453#4 539502453#5 539502453#6 539502453#7"/>
    </vehicle>
    <vehicle id="11" type="passenger" depart="11.00">
        <route edges="269658542#1 1379848211#0 1379848211#1 1379848211#2 1379848211#3 1379848211#4 221410946#2 569576531 269657037#1 783932759 269654761 269654763#0 269654763#1 269654190 53447886#8 53447886#9 53447886#10 53447886#11 266901376 535677685#0 535677685#1 535677685#2 535677685#3 535677685#4 41856137 1375772458 1375772460 1375772447 1375772450#0 1375772450#1 -38914684#1 -38914684#0 38914671#1"/>
    </vehicle>
    <vehicle id="12" type="passenger" depart="12.00">
        <route edges="-111221642#2 -111221642#1 111220511#6 111220511#7 111220511#8 111220511#9 111220511#10 111220511#11 111220511#12 38095421#13 38095421#14 38095421#15 266895804 40639444#3 40639444#4 39002847 779862593#0 779862593#1 413587591 266899333#9 266899333#10 266899333#11 266899333#12 266899333#13 266899333#14 -40539685#8 -40539685#7 -40539685#6 -40539685#5 -40539685#4 -40539685#3 -41457208#6 -41457208#5 -41457208#4 -41457208#3 -41457208#2 -41457208#1 -41457208#0"/>
    </vehicle>
    <vehicle id="13" type="passenger" depart="13.00">
        <route edges="39002853#3 39002853#4 39002853#5 38897097#0 38897097#1 38897097#2 38897097#3 38897097#4 38897097#5 535677693#11 535677693#12 535677693#13 39002871 535677683 1377973958#0 1377973958#1 1377973957#0 1377973957#1 221410949#0 221410949#1 221410949#2 221410949#3 221410949#4 -221411030#3 -221411030#2 221411022#0 -221411036#1 -221411036#0 -221410995#11 -221410995#10"/>
    </vehicle>
    <vehicle id="14" type="passenger" depart="14.00">
        <route edges="-221411049#1 -221411049#0 221410951#15 221410951#16 38095421#21 38095421#22 38095421#23 38095421#24 38095421#25 266901379 221410949#1 221410949#2 221410949#3 269654189 266899332#1 266899332#2 269654762 269654760 784032541#0 784032541#1 269657036 1036797579 1040514176 269657869#0 269657869#1 269657869#2 569897249 784032543#3 133793473 133793719#2 133793719#3 133793719#4 502469671#0 502469671#1 502469671#2 502469671#3 502469671#4 502469671#5 502469671#6 502469671#7 -133793633 701841243#0 133963272#0 133963272#1 -133794140#10 -133794140#9 -133794140#8 -133794140#7 -133794140#6 -133794050#2 -133794050#1 -133794050#0 -989819599#0 -989819598 -133793872#0"/>
    </vehicle>
    <vehicle id="16" type="passenger" depart="16.00">
        <route edges="-38912485#1 38912503#0 38912503#1 38912494#1 38912494#2 38912494#3 38912494#4 38912494#5 38912502#2 38912502#3 38912502#4 38912502#5 38912502#6 458485629#0 458485629#1 458485629#2 269618685#8 269618685#9 269618685#10 269618685#11 269618685#12 269618685#13 269618685#14 269618685#15 39002853#10 39002853#11 39002853#12 39002853#13 39002853#14 39002853#15 39002853#16 39002853#17 39002853#18 569565030 38095421#7 38095421#8 38095421#9 38095421#10 38095421#11 38095421#12 38095421#13 111220512#0 111220512#1 111220512#2 111220512#3 111220512#4 -691984193 -111220511#2 -111220511#1"/>
    </vehicle>
    <vehicle id="17" type="passenger" depart="17.00">
        <route edges="-300801476#0 300798395#1 300798395#2 300798395#3 300798395#4 -608060527 539502453#16 961907809 1036797580#0 1036797580#1 1243579344#0 1243579344#1 1243579344#2 1243579344#3 1243579344#4 1243579344#5 1243579344#6 221410946#2 221410946#3 221410946#4 221410946#5 221410946#6 221410944#0 221410944#1 221410944#2 221411052#0 221411052#1 -221411040#2"/>
    </vehicle>
    <vehicle id="18" type="passenger" depart="18.00">
        <route edges="994922065#1 39352063#0 39352063#1 39352063#2 221410168#0 221410168#1 221410168#2 779430290#0 779430290#1 779430290#2 779430290#3 269658540#14 269658540#15 269658540#16 269658540#17 269658540#18 269658540#19 269658542#0 269658542#1 1379848211#0 1379848211#1 1379848211#2 1379848211#3 1379848211#4 221410946#2 569576531 269657037#1 569576530 783932760#0 783932760#1 783932760#2 925886771#0 925886771#1 925886771#2 958828774 958828783 958828775 958828776#0 958828776#1 958828776#2 958828776#3 958828776#4 958828776#5 958828776#6 958828776#7 958828776#8 958828776#9 958828776#10 958828776#11 958828776#12 1304594033 1304594032#0 1304594032#1 1304594032#2 1304594032#3 1304594032#4 1304594032#5 382508037#0 382508037#1 382508037#2 718836997#0 718836997#1 718836997#2 783932766#0 783932766#1 783932766#2 783932766#3 783932766#4 783932766#5 783932766#6 783932766#7 783932767#0 111232124#0 111232124#1 111232141#1 111232128#0"/>
    </vehicle>
    <vehicle id="19" type="passenger" depart="19.00">
        <route edges="-221410951#13 221411023#0 221411023#1 -221410995#18 -678524770#1 -678524770#0 221411039#3 221411039#4 221411030#1 221411030#2 221411030#3 221410949#5 221410949#6 221410949#7 221410949#8 221410949#9 925886772#0 925886772#1 958828778 958828780 958828784 958828773 958828770#0 958828770#1 221411080#2 569576532 784032541#0 569576533 784032540#5 784032540#6 1379848210#0 1379848210#1 1379848210#2 1379848210#3 1379848210#4 1379848210#5 1036797580#4 1036797580#5 192514862#0 192514862#1 192514858#10 192514858#11 192514858#12 300798395#0 300801476#0 300801476#1 1118599174 300801477#0"/>
    </vehicle>
    <vehicle id="20" type="passenger" depart="20.00">
        <route edges="40539705#0 40539695 -40539701#5 -40539701#4 -40539701#3 -40539701#2 -40539701#1 -40539701#0 41457208#6 -40539685#2 -40539685#1 -40539685#0 38322215#4 38322215#5 159182881#1 159182881#2 159182881#3 159182881#4 159182881#5 159182881#6 783932763#0 783932763#1 783932763#2 783932763#3 783932763#4 783932763#5 783932763#6 783932763#7 569568483 502469668#0 502469668#1 958828784 958828774 958828783 958828775 958828776#0 958828776#1 958828776#2 958828776#3 958828776#4 958828776#5 958828776#6 958828776#7 958828776#8 958828776#9 958828776#10 958828776#11 958828776#12 1304594033 1304594032#0 1304594032#1 1304594032#2 1304594032#3 1304594032#4 1304594032#5 382508037#0 382508037#1 382508037#2 718836997#0 718836997#1 416605164#19 416605164#20 416605164#21 416605164#22 416605164#23 416605164#24 416605164#25 416605164#26 416605164#27 416605164#28 416605164#29 221413273#0 221413273#1 221413273#2 221413273#3 678539086 1352818599#2"/>
    </vehicle>
    <vehicle id="21" type="passenger" depart="21.00">
        <route edges="111221647#5 783932765#6 783932765#7 783932765#8 783932765#9 783932765#10 783932765#11 783932765#12 1301530399 38095421#5 38095421#6 38095421#7 38095421#8 710724375 40639444#1 40639444#2 40639444#3 40639444#4 39002847 779862593#0 779862593#1 413587591 266899333#9 266899333#10 266899333#11 266899333#12 266899333#13 266899333#14 -40539685#8 -40539685#7 -40539685#6 -40539685#5 -40539685#4 -40539685#3 -40539685#2 41457203#0"/>
    </vehicle>
    <vehicle id="22" type="passenger" depart="22.00">
        <route edges="38895056#1 38895050#0 38895050#1 38895050#2 38895050#3 38895050#4 38895050#5 38895050#6 269618685#1 269618685#2 269618685#3 269618685#4 269618685#5 269618685#6 269618685#7 269618685#8 535677693#5 535677693#6 535677693#7 535677693#8 535677693#9 535677693#10 535677693#11 535677693#12 535677693#13 39002871 535677683 1377973958#0 1377973958#1 1377973957#0 1377973957#1 221410949#0 221410949#1 221410949#2 221410949#3 221410949#4 221410949#5 221410949#6 221410949#7 221410949#8 221410949#9 925886772#0 925886772#1 958828778 958828780 958828785 958828772#2 958828772#3 783932761#0 783932761#1 783932761#2 783932761#3 783932761#4 783932761#5 783932761#6 221411072#0 221411072#1 221411072#2 221411072#3 221411072#4 221410947#3 221411066#0 221411066#1 221411066#2 221411066#3 221411066#4 221411066#5 1304238055 221411077#1 221411077#2"/>
    </vehicle>
    <vehicle id="23" type="passenger" depart="23.00">
        <route edges="221411957#0 221411957#1 221411957#2 221411957#3 221411875#5 221411875#6 221411875#7 221411876#6 221411876#7 221411876#8 221411876#9 221411876#10 221411876#11 221411876#12 133974955#6 133974955#7 133974955#8 133974955#9 133974955#10 784032538#9 784032538#10 784032538#11 784032538#12 784032538#13 784032538#14 784032538#15 784032538#16 784032538#17 784032538#18 784032538#19 784032538#20 784032538#21 784032538#22 784032538#23 784032538#24 784032538#25 569571504 958828781 569571502 958828782 958828780 958828785 958828772#2 958828772#3 783932761#0 221410959#0 221410959#1 221410980#3 221410980#4"/>
    </vehicle>
    <vehicle id="24" type="passenger" depart="24.00">
        <route edges="958828769#0 53447886#0 53447886#1 53447886#2 53447886#3 53447886#4 53447886#5 -53447885#3 -53447885#2 -53447885#1 -53447885#0 -53447887#6 -53447887#5"/>
    </vehicle>
    <vehicle id="25" type="passenger" depart="25.00">
        <route edges="133794084#1 133794084#2 -1369547603 133794175#0 133794175#1 133794175#2 133794175#3 133794175#4 989819623#0 989819623#1 133794115#1 133794115#2 133794115#3 133794101#6 701841244 701841243#0 701841243#1 701841243#2 539520059 133794294 133793719#6 133793719#7 133793719#0 133793719#1 133793719#2 133793175#0 133793175#1 133793175#2 133793175#3 133793175#4 133793175#5 133793175#6 133793175#7 995903311#1 133794131#0 133794131#1 133794131#2 133793727#0 133793906#0 133793906#1 133793906#2 133793668 382508030#0 382508030#1 1243386361 382508031#5 382508031#6 382508031#7 382508031#8 382508031#9 221411876#0 221411876#1 221411876#2 221411876#3 221411876#4 221411876#5 221411876#6 221411876#7 221411876#8 221411876#9 221411900 -221411955#1 -221411955#0"/>
    </vehicle>
    <vehicle id="26" type="passenger" depart="26.00">
        <route edges="221411058#0 221411058#1 221411058#2 221411058#3 1243579341#3 1243579341#4 1243579330#0 1379848211#3 1379848211#4 221410946#2 569576531 269657037#1 569576530 783932760#0 783932760#1 269655046 221411080#2 784032540#0 221410993#0 221410993#1 221410993#2 221410993#3 221410993#4 221410993#5 221410993#6 221410993#7 -221411062#3 -221411062#2 -221411062#1 -221410985 -221411065#2 -221411065#1"/>
    </vehicle>
    <vehicle id="27" type="passenger" depart="27.00">
        <route edges="783932765#11 783932765#12 1301530399 38095421#5 38095421#6 38095421#7 38095421#8 38095421#9 38095421#10 38095421#11 38095421#12 38095421#13 111220512#0 111220512#1 111220512#2 111220512#3 111221642#0 -111220511#5 -221411948#3"/>
    </vehicle>
    <vehicle id="28" type="passenger" depart="28.00">
        <route edges="40940168#3 40940134#5 40940134#6 -40940150#5 -40940132 40940176#3 40940176#4 40940175#0 678520885 40940185#1 40940185#2 40940185#3 40940185#4 1118245276 -539857434#4 -539857434#3 -539857434#2 -539857434#1 -539857434#0 -53447887#4 53447880#0 53447880#1 53447880#2 53447886#7 53447886#8 53447886#9 266901377#0 266901377#1 266901377#2 266901377#3 39002853#0 39002853#1 39002853#2 39002853#3 39002853#4 39002853#5 39002853#6 39002853#7 39002853#8 38895059#0 38895059#1 38895059#2 38895059#3 38895059#4 38895059#5 38895059#6 458485629#2 458485629#3 458485629#4 458485629#5 458485629#6 458485629#7 458485629#8 -38897131#5 -38897129#3"/>
    </vehicle>
    <vehicle id="29" type="passenger" depart="29.00">
        <route edges="111244805#1 -111244800#0 111244802#1 -111244794#0 416605164#13 416605164#14 416605164#15 416605164#16 416605164#17 416605164#18 416605164#19 382508033#4 382508033#5 784032537#0 784032537#1 784032537#2 784032537#3 784032537#4 1243583700 776199462#0 221411941#0 221411941#1 221411941#2 221411962#4 221411962#5 1243583697 221411876#4 221411950#0 221411950#1 221411950#2"/>
    </vehicle>
    <vehicle id="30" type="passenger" depart="30.00">
        <route edges="38912501#1 38912501#2 -38912494#2 -38912494#1 -38912494#0 -38895023#4 -38912452#3 -38912452#2 -38912452#1 38914685#0 -38914680#2 -38914680#1 -38914680#0 710589241#1 710589241#2 535677690 1375772449 1375772452 535677683 1377973958#0 1377973958#1 1377973957#0 1377973957#1 221410949#0 221410949#1 221410949#2 221410949#3 221410949#4 221410949#5 221411067#0 221411067#1 221411067#2 221411067#3 -221410995#9 -221410995#8 -1306176942#1"/>
    </vehicle>
    <vehicle id="31" type="passenger" depart="31.00">
        <route edges="133794145#1 133794145#2 133794145#3 133794140#7 133794140#8 133794140#9 133794140#10 715740210#0 715740210#1 701841243#2 539520059 133794294 133793719#6 133793719#7 133793719#0 569897247#0 569897247#1 569897247#2 569897247#3 269658540#9 269658540#10 269658540#11 269658540#12 269658540#13 269658540#14 269658540#15 269658540#16 269658540#17 269658540#18 269658540#19 269658542#0 269658542#1 1379848211#0 1379848211#1 1379848211#2 1379848211#3 1379848211#4 221410946#2 569576531 269657037#1 783932759 269654761 269654763#0 269654763#1 269654190 53447886#8 266901380 221410949#2 221410949#3 221410949#4 -221411030#3 -221411030#2 -221411030#1 -221411030#0"/>
    </vehicle>
    <vehicle id="32" type="passenger" depart="32.00">
        <route edges="-1304860852 221411034#1 133974955#8 133974955#9"/>
    </vehicle>
    <vehicle id="33" type="passenger" depart="33.00">
        <route edges="111244803#0 111244803#1 111244803#2 111236652#2 111236652#3 111236652#4 678580406 111236636#1 111236636#2 111236658#0 111236658#1 111236658#2 111236658#3 38095421#1 38095421#2 38095421#3 710724376#1 710724376#2 416605207 964275037#1 964275037#2 964275037#3 964275037#4 964275037#5 535677693#0 535677693#1 535677693#2"/>
    </vehicle>
    <vehicle id="34" type="passenger" depart="34.00">
        <route edges="38912480#2 38912480#3 38914685#3 1375772450#3 1375772450#4 1375772450#5 1375772450#6 458485629#0 458485629#1 458485629#2 269618685#8 269618685#9 269618685#10 269618685#11 269618685#12 269618685#13 269618685#14 269618685#15 39002853#10 39002853#11 39002853#12 39002853#13 39002853#14 39002853#15 39002853#16 39002853#17 39002853#18 569565030 38095421#7 38095421#8 38095421#9 38095421#10 221411960#0 221411914#0 221411914#1 -1304606553"/>
    </vehicle>
    <vehicle id="35" type="passenger" depart="35.00">
        <route edges="38095421#6 38095421#7 38095421#8 710724375 40639444#1 40639444#2 40639444#3 266895876 38095421#23 221411039#0 221411039#1 221411039#2"/>
    </vehicle>
    <vehicle id="36" type="passenger" depart="36.00">
        <route edges="221410951#7 221410951#8 221410951#9 221410951#10 221410951#11 221410951#12 221410951#13 221410951#14 221410951#15 221410951#16 38095421#21 38095421#22 38095421#23 38095421#24 221411071 39002853#2 39002853#3 39002853#4 39002853#5 39002853#6 39002853#7 39002853#8 38895059#0 38895059#1 38895059#2 38895059#3 38895059#4 38895059#5 38895059#6 38895059#7 38895059#8 38895059#9 -38912494#6 -38912502#1 -38912497#1"/>
    </vehicle>
    <vehicle id="37" type="passenger" depart="37.00">
        <route edges="-221411957#2 -221411957#1 -221411957#0 221411964#2 221411964#3 1307001642 221411958#2 221411958#3 539502460 221411876#9 221411876#10 221411876#11 221411876#12 133974955#6 133974955#7 133974955#8 133974955#9 133974955#10 784032538#9 784032538#10 784032538#11 784032538#12 784032538#13 784032538#14 784032538#15 784032538#16 784032538#17 784032538#18 784032538#19 784032538#20 784032538#21 784032538#22 784032538#23 784032538#24 784032538#25 569571504 958828781 569571502 958828782 958828779#0 958828779#1 958828779#2 53447886#2 53447886#3 53447886#4 53447886#5 53447886#6 -53447880#2 -53447880#1 -53447880#0 53447887#4 539857434#0 539857434#1 539857434#2 539857434#3 539857434#4 -1118245276 40940185#5 40940170#0 40940170#1"/>
    </vehicle>
    <vehicle id="38" type="passenger" depart="38.00">
        <route edges="221411912#1 221411935#1 221411935#2 1304594032#5 382508037#0 382508037#1 382508037#2 678554422 784032537#0 784032537#1 784032537#2 784032537#3 784032537#4 1243583700 776199462#0 221411941#0 221411941#1 221411941#2 221411962#4 221411962#5 1243583697 221411876#4 221411876#5 221411876#6 221411876#7 221411964#0 221411964#1"/>
    </vehicle>
    <vehicle id="39" type="passenger" depart="39.00">
        <route edges="636147960#0 636147960#1 681654708 636147959#1 133794203#2 133794203#3 133794203#4 133794203#5 681873198 133793175#1 133793175#2 133793175#3 133793175#4 133793175#5 133793175#6 133793175#7 995903311#1 133794131#0 133794131#1 133794131#2 133793727#0 133793906#0 133793906#1 133973488#0 133973488#1 539502453#0 539502453#1 539502453#2 539502453#3 539502453#4 539502453#5 539502453#6 539502453#7 539502453#8 539502453#9 539502453#10 539502453#11 539502453#12 539502453#13 539502453#14 994922067"/>
    </vehicle>
    <vehicle id="40" type="passenger" depart="40.00">
        <route edges="-41457203#4 -41457203#3 -41457203#2 -41457203#1 -41457203#0 -40539685#1 -40539685#0 38322215#4 38322215#5 159182881#1 159182881#2 159182881#3 159182881#4 159182881#5 159182881#6 783932763#0 783932763#1 783932763#2 783932763#3 783932763#4 783932763#5 -53447876 53447885#1 1074124756#0 1074124756#1"/>
    </vehicle>
    <vehicle id="41" type="passenger" depart="41.00">
        <route edges="1369900266 133794175#1 133794175#2 133794175#3 133794175#4 989819623#0 989819623#1 133794115#1 133794115#2 133794115#3 133794101#6 701841244 701841243#0 701841243#1 701841243#2 539520059 133794294 133793719#6 133793719#7 133793719#0 569897247#0 569897247#1 569897247#2 569897247#3 269658540#9 269658540#10 269658540#11 269658540#12 269658540#13 269658540#14 269658540#15 269658540#16 269658540#17 269658540#18 269658540#19 269658542#0 269658542#1 1379848211#0 1379848211#1 1379848211#2 1379848211#3 1379848211#4 221410946#2 569576531 269657037#1 569576530 783932760#0 783932760#1 783932760#2 925886771#0 925886771#1 925886771#2 958828774 958828783 958828775 958828776#0 958828776#1 958828776#2 958828776#3 958828776#4 958828776#5 958828776#6 958828776#7 958828776#8 958828776#9 958828776#10 958828776#11 958828776#12 1304594033 -539502464 111220510#17 678097284 111220513#1 111220511#0 111220511#1 111220511#2 111220511#3"/>
    </vehicle>
    <vehicle id="42" type="passenger" depart="42.00">
        <route edges="133794140#7 133794140#8 133794140#9 133794140#10 715740210#0 715740210#1 701841243#2 539520059 681835962 502469671#2 502469671#3 502469671#4 502469671#5 502469671#6 502469671#7 701841242 133793167#0 -133793455 133794101#2 133794101#3 133794101#4 133793444#0"/>
    </vehicle>
    <vehicle id="43" type="passenger" depart="43.00">
        <route edges="133793736 133794101#1 133794101#2 133794101#3 133794101#4 133794101#5 133794101#6 701841244 701841243#0 701841243#1 701841243#2 539520059 133794294 133793719#6 133793719#7 133793719#0 569897247#0 569897247#1 569897247#2 569897247#3 269658540#9 269658540#10 269658540#11 269658540#12 269658540#13 269658540#14 269658540#15 269658540#16 269658540#17 269658540#18 269658540#19 269658542#0 269658542#1 1379848211#0 1379848211#1 1379848211#2 1379848211#3 1379848211#4 221410946#2 569576531 269657037#1 569576530 783932760#0 783932760#1 269655046 221411080#2 569576532 784032541#0 569576533 784032540#5 784032540#6 1379848210#0 1379848210#1 1379848210#2"/>
    </vehicle>
    <vehicle id="44" type="passenger" depart="44.00">
        <route edges="1304601294 221411946#2 221411946#3 221411946#4 221411946#5 382508037#2 718836997#0 718836997#1 718836997#2 783932766#0 783932766#1 111232122#0 111232122#1 111232141#7 678576721 111232145#1 111232145#2 111232145#3 111232145#4 -785347519 111244794#6 111244792#0"/>
    </vehicle>
    <vehicle id="45" type="passenger" depart="45.00">
        <route edges="133974955#7 133974955#8 133974955#9 133974955#10 784032538#9 784032538#10 784032538#11 784032538#12 784032538#13 784032538#14 784032538#15 784032538#16 784032538#17 784032538#18 784032538#19 784032538#20 784032538#21 784032538#22 784032538#23 784032538#24 784032538#25 569571504 958828781 569571502 958828782 958828780 958828785 958828772#2 958828772#3 783932761#0 783932761#1 783932761#2 783932761#3 783932761#4 783932761#5 783932761#6 221411072#0 221410971"/>
    </vehicle>
    <vehicle id="46" type="passenger" depart="46.00">
        <route edges="-221411511#0 -221410951#9 -221410951#8 -221410951#7 -221410951#6 -221410951#5 -221410951#4 -221410951#3 -221410951#2 -221410951#1 -221410951#0 958828776#9 958828776#10 958828776#11 958828776#12 1304594033 1304594032#0 1304594032#1 1304594032#2 -221411882 -221411951#2"/>
    </vehicle>
    <vehicle id="47" type="passenger" depart="47.00">
        <route edges="41457182#1 41457182#2 41457182#3 -41457183#6 -41457183#5 -41457183#4 -41457183#3 -41457168 159182881#3 159182881#4 159182881#5 159182881#6"/>
    </vehicle>
    <vehicle id="48" type="passenger" depart="48.00">
        <route edges="53447885#2 53447885#3 53447886#6 53447886#7 53447886#8 53447886#9 266901377#0 266901377#1 266901377#2 266901377#3 39002853#0 39002853#1 39002853#2 39002853#3 39002853#4 39002853#5 39002853#6 39002853#7 39002853#8 38895059#0 38895059#1 38895059#2 38895059#3 38895059#4 38895059#5 38895059#6 38895059#7 38895059#8 38895059#9 -38912494#6 -38912494#5"/>
    </vehicle>
    <vehicle id="49" type="passenger" depart="49.00">
        <route edges="-221411075#2 221411026#1 784032538#14 784032538#15 784032538#16 784032538#17 784032538#18 784032538#19 784032538#20 784032538#21 784032538#22 784032538#23 784032538#24 784032538#25 221411080#0 221411080#1 221411080#2 569576532 784032541#0 784032541#1 269657036 1036797579 1040515564"/>
    </vehicle>
    <vehicle id="50" type="passenger" depart="50.00">
        <route edges="1301535120 -638667445#1 -638667445#0 -539857434#1 -539857434#0 53447887#5 53447887#6 53447887#7 53447887#8 783932763#3 783932763#4 783932763#5 783932763#6 783932763#7 569568483 502469668#0 502469668#1 958828784 958828774 958828783 958828775 958828776#0 958828776#1 958828776#2 958828776#3 958828776#4 958828776#5 958828776#6 958828776#7 958828776#8 958828776#9 958828776#10 958828776#11 958828776#12 1304594033 1304594032#0 1304594032#1 1304594032#2 1304594032#3 1304594032#4 1304594032#5 382508037#0 221411945#0 221411945#1 221411945#2 221411945#3 221411945#4 111220513#9 111220513#10 111220513#11 111220513#12 111221658#0 111221658#1 111221658#2 111221658#3 -111221636#4"/>
    </vehicle>
    <vehicle id="51" type="passenger" depart="51.00">
        <route edges="221411955#2 221411955#3 221411955#4 221411955#5 133974956#6 133974956#7 133974956#8 133974956#9 133974956#10 539502456#5 539502456#6 539502456#7 539502456#8 569790078 539502453#0 539502453#1 539502453#2 539502453#3 539502453#4 539502453#5 539502453#6 539502453#7 539502453#8 539502453#9 539502453#10 539502453#11 539502453#12 539502453#13 539502453#14 539502453#15 608060527 -300798395#4 -300798395#3 -300798395#2 -300798395#1 -300798395#0 -192514858#12"/>
    </vehicle>
    <vehicle id="52" type="passenger" depart="52.00">
        <route edges="38895054#6 38895054#7 -38895029#1 -38895029#0 38895051#5 38897131#0 38897131#1 38897131#2 38897131#3 38897131#4 38897131#5 458485629#9 458485629#10 458485629#11 964275039 535677693#0 -38897100#2 -38897100#1 -38897100#0 39002853#14 39002853#15 39002853#16 39002853#17 39002853#18 39002853#19 39231079#0 39231079#1"/>
    </vehicle>
    <vehicle id="53" type="passenger" depart="53.00">