<?xml version="1.0" encoding="UTF-8"?>

<!-- generated on 2025-05-02 14:47:33 by Eclipse SUMO duarouter Version 1.21.0
<duarouterConfiguration xmlns:xsi="http://www.w3.org/2001/XMLSchema-instance" xsi:noNamespaceSchemaLocation="http://sumo.dlr.de/xsd/duarouterConfiguration.xsd">

    <input>
        <net-file value="ksu.net.xml"/>
        <route-files value="ksu.trips.xml"/>
    </input>

    <output>
        <output-file value="ksu.rou.xml"/>
    </output>

    <processing>
        <remove-loops value="true"/>
        <repair value="true"/>
    </processing>

    <report>
        <ignore-errors value="true"/>
    </report>

</duarouterConfiguration>
-->

<routes xmlns:xsi="http://www.w3.org/2001/XMLSchema-instance" xsi:noNamespaceSchemaLocation="http://sumo.dlr.de/xsd/routes_file.xsd">
    <vehicle id="0" depart="0.00">
        <route edges="-539857434#2 -539857434#1 -539857434#0 -53447887#4 53447880#0 53447880#1 53447880#2 53447886#7 53447886#8 53447886#9 266901377#0 266901377#1 266901377#2 266901377#3 39002853#0 39002853#1 39002853#2 39002853#3 39002853#4 39002853#5 39002853#6 39002853#7 39002853#8 38895059#0 38895059#1 38895059#2 38895059#3 38895059#4 38895059#5 38895059#6"/>
    </vehicle>
    <vehicle id="1" depart="1.00">
        <route edges="1375772459#1 -39002843#3 -39002843#2 -39002843#1 -39002843#0 844036241#13 844036241#14 1377973956 1378001626#0 1378001626#1 1378001626#2 1378001626#3 221410949#1 221410949#2 221410949#3 269654189 266899332#1 266899332#2 269654762 269654760 784032541#0 784032541#1 269657036 1036797579 1040514176 269657869#0 269657869#1 269657869#2 269657869#3 269657869#4 269657869#5 1333721223#0"/>
    </vehicle>
    <vehicle id="2" depart="2.00">
        <route edges="133793867 133793293 133794178 133794220#4 133794220#5 989819622#0 133794115#0 133794115#1 133794115#2 133794115#3 133794101#6 701841244 701841243#0 701841243#1 701841243#2 539520059 133794294 133793719#6 133793719#7 133793719#0 569897247#0 569897247#1 569897247#2 569897247#3 269658540#9 269658540#10 269658540#11 269658540#12 269658540#13 269658540#14 269658540#15 269658540#16 269658540#17 269658540#18 269658540#19 269658542#0 269658542#1 1379848211#0 1379848211#1 1379848211#2 1379848211#3 1379848211#4 221410946#2 569576531 269657037#1 569576530 783932760#0 783932760#1 783932760#2 925886769#0 925886769#1 783932761#0 783932761#1 783932761#2 783932761#3 783932761#4 783932761#5 783932761#6 783932761#7 783932761#8 783932761#9 783932762#0 783932762#1 783932762#2 783932762#3 -41457271#1"/>
    </vehicle>
    <vehicle id="3" depart="3.00">
        <route edges="39002861#1 844036241#10 844036241#11 844036241#12 844036241#13 413583317 266899333#2 413583321 779862593#1 413587591 266899333#9 266899333#10 266899333#11 266899333#12 266899333#13 266899333#14 -40539685#8 -40539685#7 -40539685#6 -40539685#5 -40539685#4 -40539685#3 -40539685#2"/>
    </vehicle>
    <vehicle id="4" depart="4.00">
        <route edges="-221411063#0 221411058#2 221411058#3 1243579341#3 1243579341#4 1243579330#0 1379848211#3 1379848211#4 221410946#2 569576531 269657037#1 783932759 269654761 269654763#0 269654763#1 269654190 53447886#8 53447886#9 266901377#0 266901377#1 266901377#2 266901377#3 39002853#0 39002853#1 39002853#2 39002853#3 39002853#4 39002853#5 39002853#6 39002853#7 39002853#8 38895059#0 38895059#1 38895059#2 38895059#3 38895059#4 38895059#5 38895059#6 458485629#2 458485629#3 458485629#4 458485629#5 458485629#6 458485629#7 458485629#8 -38897131#5 -38897131#4 -38897131#3 -38897131#2 -38897131#1 -38897131#0 -38895051#5 38895029#0 38895029#1 38895054#8"/>
    </vehicle>
    <vehicle id="5" depart="5.00">
        <route edges="-133794002 133793872#0 989819598 989819599#0 133794050#0 133794050#1 133794050#2 133794140#6 133794140#7 133794140#8 133794140#9 133794140#10 715740210#0 715740210#1 701841243#2 539520059 133794294 133793719#6 133793719#7 133793719#0 133793719#1 133793719#2 133793175#0 133793175#1 133793175#2 133793175#3 133793175#4 133793175#5 133793175#6 133793175#7 995903311#1 133794131#0 133794131#1 133794131#2 133793727#0 133793906#0 133793906#1 133793906#2 133793668 382508030#0 382508030#1 382508030#2 382508030#3 713369662 713369661#0 713369661#1 636313139 783932765#10 -111223919#7 -111223919#6 111223911"/>
    </vehicle>
    <vehicle id="6" depart="6.00">
        <route edges="-38912480#0 710589241#2 535677690 1375772449 1375772452 535677683 1377973958#0 1377973958#1 1377973957#0 1377973957#1 221410949#0 221410949#1 221410949#2 221410949#3 221410949#4 221410949#5 221410949#6 221410949#7 221410949#8 221410949#9 925886770#0 221410945#0 221410945#1 221410945#2 221410945#3 221410945#4 221410945#5 221410945#6"/>
    </vehicle>
    <vehicle id="7" depart="7.00">
        <route edges="221410980#0 221410980#1 221410980#2 221410980#3 221410980#4 783932760#1 783932760#2 925886771#0 925886771#1 925886771#2 958828774 958828783 958828775 958828776#0 958828776#1 958828776#2 958828776#3 958828776#4 958828776#5 958828776#6 958828776#7 958828776#8 958828776#9 958828776#10 958828776#11 958828776#12 1304594033 1304594032#0 1304594032#1 1304594032#2 1304594032#3 1304594032#4 1304594032#5 382508037#0 221411945#0 221411945#1 221411945#2 221411945#3 221411945#4 111220513#9 111220513#10 111220513#11 111220513#12 111220513#13 111220513#14 783932765#4 783932765#5 783932765#6 783932765#7 783932765#8 783932765#9"/>
    </vehicle>
    <vehicle id="8" depart="8.00">
        <route edges="133973513 382508031#0 382508031#1 382508031#2 382508031#3 382508031#4 382508031#5 382508031#6 382508031#7 382508031#8 1243581696 382508030#3 713369662 713369661#0 713369661#1 636313139 783932765#10 783932765#11 783932765#12 710724376#0 710724376#1 710724376#2 416605207 964275037#1 964275037#2 964275037#3 964275037#4 964275037#5 535677693#0 535677693#1 535677693#2 535677693#3 535677693#4 535677693#5 38895059#6 38895059#7 38895059#8 38895059#9 38895059#10 -38912500#4 38912502#0"/>
    </vehicle>
    <vehicle id="9" depart="9.00">
        <route edges="221411946#3 221411946#4 221411946#5 382508037#2 718836997#0 718836997#1 416605164#19 416605164#20 416605164#21 416605164#22 416605164#23 416605164#24 416605164#25 416605164#26 416605164#27 416605164#28 416605164#29 416605164#30 569790082 713369663#2 991887360 133794033 133793923#0 133793923#1 133793732#0 133793732#1 133793732#2 133793727#2 133793727#3 133793727#4 133793727#5 133793270#0 133793270#1 995903311#3 995903311#4 995903311#5 133794250#0 133794250#1 133794250#2 133794250#3 133794250#4 133794250#5 133794250#6 133793907#4 133793907#0 133793870 502469671#7 701841242 133793167#0 -133793455 133794101#2 133794101#3 133794101#4 133793444#0 133793444#1 133793444#2 133793444#3 133793444#4 133793444#5"/>
    </vehicle>
    <vehicle id="10" depart="10.00">
        <route edges="221411885 111220510#3 111220510#4 111220510#5 221411946#1 221411946#2 221411946#3 221411946#4 221411946#5 382508037#2 678554422 784032537#0 784032537#1 784032537#2 784032537#3 784032537#4 784032537#5 784032537#6 784032537#7 784032538#0 784032538#1 784032538#2 784032538#3 784032538#4 784032538#5 784032538#6 784032538#7 784032538#8 784032538#9 784032538#10 784032538#11 784032538#12 -221411046#2 -221411046#1 -221411046#0 221411034#0 221411034#1"/>
    </vehicle>
    <vehicle id="11" depart="11.00">
        <route edges="535677693#10 535677693#11 535677693#12 535677693#13 38881997 535677689 1375772445 1375772447 1375772450#0 1375772450#1 1375772450#2 1375772450#3 1375772450#4 -38895023#9 -38895023#8 -38895023#7 -38895023#6 -38895023#5 -38895023#4 -38895023#3 -38895023#2 -38895023#1 -38895023#0"/>
    </vehicle>
    <vehicle id="12" depart="12.00">
        <route edges="221411934#0 221411934#1 221411934#2 660877387 221411925#1 221411925#2 111220510#14 111220510#15 111220510#16 111220510#17 678097284 111220513#1 111220511#0 111220511#1 111220511#2 111220511#3 111220511#4 111220511#5 111220511#6 111220511#7 111220511#8 111220511#9 111220511#10 111220511#11 111220511#12 38095421#13 38095421#14 38095421#15 38095421#16 38095421#17 38095421#18 38095421#19 38095421#20 38095421#21 38095421#22 38095421#23 38095421#24 221411071 39002853#2 39002853#3 39002853#4 266895864 40639433#1 40639433#2 40639433#3"/>
    </vehicle>
    <vehicle id="13" depart="13.00">
        <route edges="783932766#4 783932766#5 111232113#0 111232113#1 111232113#2 111232113#3 111232141#3 111232141#4 111232141#5 111232141#6 111232141#7 111232141#8 416605164#15 416605164#16 416605164#17 416605164#18 416605164#19 382508033#4 382508033#5 784032537#0 784032537#1 784032537#2 784032537#3 784032537#4 784032537#5 784032537#6 784032537#7 784032538#0 784032538#1 784032538#2 784032538#3 784032538#4 784032538#5 784032538#6 784032538#7 784032538#8 784032538#9 784032538#10 784032538#11 784032538#12 784032538#13 784032538#14 784032538#15 784032538#16 784032538#17 784032538#18 784032538#19 784032538#20 784032538#21 784032538#22 784032538#23 784032538#24 784032538#25 569571504 958828781 569571502 958828782 958828779#0 958828779#1 958828779#2 53447886#2 53447886#3 53447886#4 53447886#5 -53447885#3 -53447885#2 -53447885#1 53447876 783932763#6 783932763#7 958828769#0 958828769#1 958828769#2"/>
    </vehicle>
    <vehicle id="14" depart="14.00">
        <route edges="-816270968#2 -816270968#1 -816270968#0 -667512507#0 816270974#0 816270974#1 816270974#2 -816270976 816270975#0 816270975#1 816270975#2 816270973#0 816270973#1 816270973#2 221413272#2 1305933949 221413270#1 678541444 679408147#0 679408147#1 1305742529 221413231#2 221413231#3 221413231#4 678533252 1352818599#0 1305671591#0 1305671591#1 -221413273#4 -221413273#3 -221413273#2 -221413273#1 -221413273#0 416605164#30 569790082 713369663#2 991887360 991887361 569790080 133973488#1 539502453#0 539502453#1 539502453#2 539502453#3 539502453#4 539502453#5 539502453#6 539502453#7 539502453#8 539502453#9 539502453#10 539502453#11 539502453#12 539502453#13 539502453#14 994922067 994922063#2 994922065#0 1243579338#1 1243579344#3 1243579344#4 1243579344#5 1243579344#6 221410946#2 221410946#3 221410946#4 221410946#5 221410946#6 221410944#0 221410944#1 221410944#2 221410944#3 221410944#4 221410944#5 221410944#6"/>
    </vehicle>
    <vehicle id="15" depart="15.00">
        <route edges="-221411952#2 660877183#1 111220513#3 111220513#4 111220513#5 111220513#6 111220513#7 111220513#8 111220513#9 221411946#0 221411946#1 221411946#2 221411946#3 221411946#4 221411946#5 382508037#2 718836997#0 718836997#1 416605164#19 416605164#20 416605164#21 416605164#22 416605164#23 416605164#24 416605164#25 416605164#26 416605164#27 416605164#28 416605164#29 416605164#30 569790082 713369663#2 991887360 133794033 133793923#0 133793923#1 133793732#0 133793732#1 133793732#2 133793727#2 133793727#3 133793727#4 133793727#5 133793270#0 133793270#1 995903311#3 995903311#4 995903311#5 133794250#0 133794250#1 133794250#2 133794250#3 133794250#4 133794250#5 133794250#6 133793907#4 133793907#0 133793870 502469671#7 -133793633 701841243#0 133963272#0 133963272#1 -133794140#10 -133794140#9 -133794140#8 -133794140#7 -133794140#6 -133794140#5 -133794140#4"/>
    </vehicle>
    <vehicle id="16" depart="16.00">
        <route edges="221411081#2 221411081#3 221411081#4 -221411056#2 -221411056#1 -221411056#0 221410980#2 221410980#3 221410980#4 783932760#1 783932760#2 925886771#0 925886771#1 925886771#2 958828774 958828782 958828779#0 958828779#1 958828779#2 53447886#2 53447886#3 53447886#4 53447886#5 53447886#6 53447886#7 53447886#8 53447886#9 266901377#0 266901377#1 266901377#2 266901377#3 39002853#0 39002853#1 39002853#2 39002853#3 39002853#4 39002853#5 39002853#6 39002853#7 39002853#8 38895059#0 38895059#1 38895059#2 38895059#3 38895059#4 38895059#5 38895059#6 458485629#2 458485629#3 458485629#4 458485629#5 458485629#6 458485629#7 458485629#8 -38897131#5"/>
    </vehicle>
    <vehicle id="17" depart="17.00">
        <route edges="902203116#0 902203116#1 902203115#4 -1305895761 902203114#7 -1305735017 -1305726339 -1305726337#0 1352024560#1 -1305726336 1352024561 416605164#26 416605164#27 416605164#28 416605164#29 416605164#30 416605164#31 133973520#0 133973520#1 133973520#2 133973520#3 133973520#4 221413238#0 221413238#1 221413238#2 221413238#3 221413238#4 221413238#5 221413238#6 569788808#2 648917236#0 648917236#1 816288819#0 816288819#1 -667512508#3 -667512508#2 816268400#1 816268398#7 816268398#8 816268396#1 816268396#2 816268396#3"/>
    </vehicle>
    <vehicle id="18" depart="18.00">
        <route edges="53447876 783932763#6 783932763#7 958828769#0 53447886#0 53447886#1 53447886#2 53447886#3 53447886#4 53447886#5 53447886#6 53447886#7 53447886#8 53447886#9 266901377#0 266901377#1 266901377#2 266901377#3 39002853#0 39002853#1 39002853#2 39002853#3 39002853#4 39002853#5 39002853#6 39002853#7 39002853#8 38895059#0 38895059#1 38895059#2 38895059#3 38895059#4 38895059#5 38895059#6 458485629#2 458485629#3 38895049#0 38895049#1 38895049#2 38895049#3 38895049#4 38895049#5 38895049#6 38895049#7 38895049#8 38895049#9 38895054#1 38895054#2 38895054#3 38895054#4 38895054#5 38895054#6 -38895057#4 -38895057#3 -38895057#2 -38895057#1 -38895057#0"/>
    </vehicle>
    <vehicle id="19" depart="19.00">
        <route edges="-816269283#2 -816269283#1 -816269283#0 -667512515#0 667512514#3 667512514#0 -667512508#4 -667512508#3 -667512508#2 -667512508#1 -667512508#0 667512509#5 667512509#0 667512509#1 667512510#0 667512510#1 -667512507#1 -667512507#0 816270974#0 816270974#1 816270974#2 -816270976 816270975#0 816270975#1 816270975#2 816270973#0 816270973#1 816270973#2 221413272#2 1305933949 221413270#1 221413270#2 221413270#3 221413270#4 221413270#5 221413270#6 221413270#7 221413270#8 406854313#2 406854313#3 382508033#0 382508033#1 382508033#2 382508033#3 382508033#4 718836994#1 718836994#2 783932765#1 783932765#2 783932765#3 783932765#4 416605141 713369661#1 636313139 783932765#10 783932765#11 783932765#12 1301530399 38095421#5 38095421#6 38095421#7 38095421#8 710724375 40639444#1 40639444#2 40639444#3 40639444#4 39002847 779862593#0 779862593#1 413587591 266899333#9 266899333#10 266899333#11 266899333#12 266899333#13 -40940166#6 -40940166#5 40940157 40539685#8"/>
    </vehicle>
    <vehicle id="20" depart="20.00">
        <route edges="133963272#1 715740210#0 715740210#1 701841243#2 539520059 133794294 133793719#6 133793719#7 133793719#0 133793719#1 133793719#2 133793175#0 133793175#1 133793175#2 133793175#3 133793175#4 133793175#5 133793175#6 133793175#7 995903311#1 133794131#0 133794131#1 133794131#2 133793727#0 133793906#0 133793906#1 133793906#2 133793668 569790079#1 569790079#2 133973520#1 133973520#2 133973520#3 133973520#4 221413238#0 221413238#1 221413238#2 221413238#3 539032285 221413270#0 221413270#1 221413270#2 221413270#3 221413270#4 221413270#5 221413270#6 221413270#7 221413270#8 406854313#2 406854313#3 382508033#0 902203114#0"/>
    </vehicle>
    <vehicle id="21" depart="21.00">
        <route edges="-38912486#0 38912480#9 416605156 1375772450#6 458485629#0 458485629#1 458485629#2 269618685#8 269618685#9 269618685#10 269618685#11 269618685#12 269618685#13 269618685#14 269618685#15 39002853#10 39002853#11 39002853#12 39002853#13 39002853#14 39002853#15 39002853#16 39002853#17 39002853#18 39002853#19 39231079#0 39231079#1 416605164#2 416605164#3 416605164#4 416605164#5 416605164#6 416605164#7 1132178741 181124268#1 181124268#2 159182902 713369663#0 678550117 416605164#24 416605164#25 416605164#26 416605164#27 416605164#28 416605164#29 416605164#30 569790082 713369663#2 991887360"/>
    </vehicle>
    <vehicle id="22" depart="22.00">
        <route edges="269618685#3 269618685#4 269618685#5 269618685#6 269618685#7 269618685#8 269618685#9 269618685#10 269618685#11 269618685#12 269618685#13 269618685#14 269618685#15 39002853#10 39002853#11 39002853#12 39002853#13 39002853#14 39002853#15 39002853#16 39002853#17 39002853#18 569565030 38095421#7 38095421#8 38095421#9 -111221643#9 -111221643#8 -111221643#7 -111221643#6 -111221643#5 -111221656#7 221411898 -111221642#6 221411959#0 221411948#0 -539258417#1 -221411893"/>
    </vehicle>
    <vehicle id="23" depart="23.00">
        <route edges="-221413191 -538849970#0 221413238#0 221413238#1 221413238#2 221413238#3 221413238#4 221413238#5 221413238#6 569788808#2 648917236#0 648917236#1 816288819#0 816288819#1 -667512508#3 -667512508#2 816268400#1 816268398#7 816268398#8 816268396#1 816268396#2 816268396#3 816268396#4 816268398#1"/>
    </vehicle>
    <vehicle id="24" depart="24.00">
        <route edges="-111221656#13 -111221656#12 -111221656#11 -111221656#10 -111221656#9 -111221656#8 111221643#5 111221643#6 111221643#7 111221643#8 111221643#9 38095421#10 38095421#11 38095421#12 38095421#13 38095421#14 38095421#15 38095421#16 38095421#17 38095421#18 38095421#19 38095421#20 38095421#21 38095421#22 38095421#23 38095421#24 221411071 39002853#2 39002853#3 39002853#4 39002853#5 39002853#6 39002853#7 39002853#8 38895059#0"/>
    </vehicle>
    <vehicle id="25" depart="25.00">
        <route edges="678575064 -111244794#2 -111244794#1 -111244794#0 416605164#13 416605164#14 416605164#15 416605164#16 678564273 783932765#2 783932765#3 783932765#4 416605141 713369661#1 636313139 783932765#10 783932765#11 783932765#12 1301530399 38095421#5 38095421#6 38095421#7 38095421#8 710724375 40639444#1 40639444#2 40639444#3 266895876 38095421#23 38095421#24 38095421#25 38095421#26 266899709#0 266899709#1 266899709#2 266899333#0 266899333#1 266899333#2 266899333#3 266899333#4 266899333#5 266899333#6 266899333#7 269586819"/>
    </vehicle>
    <vehicle id="26" depart="26.00">
        <route edges="41457208#10 -41457173 41457184#3 41457184#4 41457184#5 41457184#6 -41457180#2 -41457180#1 -41457180#0 159182881#4 159182881#5 159182881#6 783932763#0 783932763#1 783932763#2 783932763#3 783932763#4 783932763#5 -53447876 53447885#1 1074124756#0 1074124756#1"/>
    </vehicle>
    <vehicle id="27" depart="27.00">
        <route edges="539292347#2 221411011#1 -539292344 784032538#23 784032538#24 784032538#25 569571504 958828781 569571502 958828782 958828779#0 958828779#1 958828779#2 53447886#2 53447886#3 53447886#4 53447886#5 53447886#6 53447886#7 53447886#8 53447886#9 53447886#10 266899710 266899333#1 266899333#2 413583321 779862593#1 413587591 266899333#9 266899333#10 266899333#11 266899333#12 266899333#13 266899333#14 -40539685#8 -40539685#7 -40539685#6 -40539685#5 -40539685#4 -40539685#3 -40539685#2 41457203#0 41457203#1 41457203#2 -41457198#1 -41457198#0 -41457207#1"/>
    </vehicle>
    <vehicle id="28" depart="28.00">
        <route edges="38895051#6 38895051#7 38895051#8 38895051#9 38895051#10 38895051#11 38895051#12 269618685#3 269618685#4 269618685#5 269618685#6 269618685#7 269618685#8 535677693#5 535677693#6 535677693#7 535677693#8 535677693#9 535677693#10 535677693#11 535677693#12 535677693#13 39002871 535677683 1377973958#0 1377973958#1 1377973957#0 1377973957#1 221410949#0 221410949#1 221410949#2 221410949#3 221410949#4 221410949#5 221410949#6 221410949#7 221410949#8 221410949#9 925886772#0 925886772#1 958828778 958828780 958828785 958828772#2 958828772#3 783932761#0 783932761#1 783932761#2 783932761#3 783932761#4 783932761#5 783932761#6 783932761#7 783932761#8 783932761#9 -263489955#8 -263489955#7 -263489955#6 -263489955#5 -539866356"/>
    </vehicle>
    <vehicle id="29" depart="29.00">
        <route edges="111223917#5 111223908#4 38095421#6 38095421#7 38095421#8 710724375 40639444#1 40639444#2 40639444#3 266895876 38095421#23 38095421#24 38095421#25 38095421#26 266899709#0 266899709#1 266899709#2 266899333#0 266899333#1 266899333#2 266899333#3 266899333#4 266899333#5 266899333#6 266899333#7 266899333#8"/>
    </vehicle>
    <vehicle id="30" depart="30.00">
        <route edges="-221411528#3 221411542 -221411537#0 221411543#4 221411516#3 -221411518 958828776#10 958828776#11 958828776#12 1304594033 1304594032#0 1304594032#1 1304594032#2 1304594032#3 1304594032#4 1304594032#5 382508037#0 382508037#1 382508037#2 718836997#0 718836997#1 416605164#19 416605164#20 416605164#21 416605164#22 416605164#23 416605164#24 416605164#25 416605164#26 416605164#27 416605164#28 416605164#29 416605164#30 416605164#31 133973520#0 133973520#1 133973520#2 133973520#3 133973520#4 221413238#0 221413238#1 539032269#0 1034093903"/>
    </vehicle>
    <vehicle id="31" depart="31.00">
        <route edges="-636147921#7 -636147921#6 -636147921#5 636147918#0 636147918#1 636147918#2 636147918#3 133794203#4 133794203#5 681873198 133793175#1 133793175#2 133793175#3 133793175#4 133793175#5 133793175#6 133793175#7 995903311#1 133794131#0 133794131#1 133794131#2 133793727#0 133793906#0 133793906#1 133793906#2 133793668 382508030#0 382508030#1 1243386361 382508031#5 382508031#6 382508031#7 382508031#8 382508031#9 382508031#10 382508031#11 382508031#12 382508031#13 221411877#0 718836994#0 718836994#1 718836994#2 783932765#1 783932765#2 783932765#3 783932765#4 783932765#5 783932765#6 -111221636#5 -111221636#4 -111221636#3 -111221636#2 -111221636#1 -111221636#0 111221637#4"/>
    </vehicle>
    <vehicle id="32" depart="32.00">
        <route edges="221411918#1 -221411951#0 221411935#2 1304594032#5 382508037#0 382508037#1 382508037#2 718836997#0 718836997#1 718836997#2 783932766#0 783932766#1 111232122#0 111232122#1 111232141#7 678576721 111232145#1 111232145#2 678575064 -111244794#2 -111244794#1 -111244794#0"/>
    </vehicle>
    <vehicle id="33" depart="33.00">
        <route edges="111232145#3 1304806768 111232141#5 111232141#6 111232141#7 111232141#8 416605164#15 416605164#16 678564273 783932765#2 783932765#3 783932765#4 416605141 713369661#1 636313139 783932765#10 783932765#11 783932765#12 710724376#0 710724376#1 710724376#2 416605207 964275037#1 964275037#2 964275037#3 964275037#4 964275037#5 535677693#0 535677693#1 535677693#2 644367955 458485629#7 458485629#8 458485629#9 38895052#0 38895052#1 38895052#2 -38895051#3 -38895051#2 -38895051#1 -38897115#3 -38897115#2 -38895054#11"/>
    </vehicle>
    <vehicle id="34" depart="34.00">
        <route edges="-221411511#7 -221411511#6 -221411511#5 -221411511#4 -221411511#3 -221411511#2 -221411511#1 -221411511#0 221410951#10 221411028#0 221411028#1 221410995#16 221411033#0 221411033#1 -221411069#3 221411030#0 221411030#1 221411030#2 221411030#3 221410949#5 221410949#6 221410949#7 221410949#8 221410949#9 925886772#0 925886772#1 958828778 958828780 958828784 958828773 958828770#0 958828770#1 221411080#2 784032540#0 221410993#0 221410993#1 -221411061#4 221411078#0"/>
    </vehicle>
    <vehicle id="35" depart="35.00">
        <route edges="40940138 40940134#4 40940168#4 40539689#3 41457178#0 41457178#1 41457208#10 -41457173 41457184#3 41457184#4 41457184#5 41457184#6 -41457180#2 -41457180#1 -41457180#0 159182881#4 159182881#5 159182881#6 783932763#0 783932763#1 783932763#2 783932763#3 783932763#4 783932763#5 783932763#6 783932763#7 569568483 502469668#0 502469668#1 958828784 958828774 958828783 958828775 958828776#0 958828776#1 958828776#2 958828776#3 958828776#4 958828776#5 958828776#6 958828776#7 958828776#8 958828776#9 958828776#10 958828776#11 958828776#12 1304594033 1304594032#0 1304594032#1 1304594032#2 1304594032#3 1304594032#4 1304594032#5 382508037#0 382508037#1 382508037#2 678554422 784032537#0 784032537#1 784032537#2 784032537#3 784032537#4 1243583700 776199462#0 221411941#0 221411941#1 221411941#2 221411962#4 221411962#5 1243583697 221411876#4 221411950#0 221411950#1 221411950#2 221411950#3"/>
    </vehicle>
    <vehicle id="36" depart="36.00">
        <route edges="221411011#1 -539292344 784032538#23 784032538#24 784032538#25 569571504 958828781 569571502 958828782 958828779#0 958828779#1 958828779#2 53447886#2 53447886#3 53447886#4 53447886#5 53447886#6 53447886#7 53447886#8 53447886#9 266901377#0 266901377#1 266901377#2 266901377#3 39002853#0 39002853#1 39002853#2 39002853#3 39002853#4 39002853#5 39002853#6 39002853#7 39002853#8 39002853#9 39002853#10 39002853#11 39002853#12 39002853#13 39002853#14 39002853#15 39002853#16 39002853#17 39002853#18 39002853#19 39231079#0 39231079#1 416605164#2 416605164#3 416605164#4 416605164#5 416605164#6 416605164#7 416605164#8 416605164#9 416605164#10 416605164#11"/>
    </vehicle>
    <vehicle id="37" depart="37.00">
        <route edges="38895051#0 38895051#1 38895051#2 38895051#3 -38895052#2 -38895052#1 -38895052#0 458485629#10 458485629#11 964275039 535677693#0 -38897100#2 -38897100#1 -38897100#0 39002853#14 39002853#15 39002853#16 39002853#17 39002853#18 39002853#19 39231079#0 39231079#1 416605164#2 416605164#3 416605164#4 416605164#5 416605164#6 416605164#7 1132178741 181124268#1 181124268#2 159182902 713369663#0 678550117 416605164#24 1352024560#0 1352024560#1 539032263#0 539032263#1 221413231#0 -678541445#3 -678541445#2 -678541445#1 -1305742532#2 -1305742532#1 539032272"/>
    </vehicle>
    <vehicle id="38" depart="38.00">
        <route edges="221411025#0 -221411000#1 -221411000#0 221411033#1 -221411069#3 221411030#0 -221411039#4 -221411039#3 -221411039#2 -221411039#1 -221411039#0 38095421#24 38095421#25 1378001625#0 1378001625#1 1378001625#2 1378001625#3 1377973959 535677685#2 535677685#3 535677685#4 41856137"/>
    </vehicle>
    <vehicle id="39" depart="39.00">
        <route edges="-221411070#1 221411065#4 221410993#9 221410993#10 221410993#11 221410993#12 221410993#13 221410993#14 221410993#15 221410993#16 221410993#17 1306125209 221411962#0 221411962#1 221411962#2 221411962#3 221411962#4 221411962#5 221411962#6 221411962#7 221411962#8 382508031#11 382508031#12 382508031#13 221411877#0 718836994#0 718836994#1 718836997#1 416605164#19 416605164#20 416605164#21 416605164#22 416605164#23 416605164#24 1352024560#0 1305726337#0 1305726337#1 1305726338#0 1305726338#1 902203114#9 902203114#10 902203114#11"/>
    </vehicle>
    <vehicle id="40" depart="40.00">
        <route edges="416605164#2 416605164#3 416605164#4 416605164#5 416605164#6 416605164#7 416605164#8 416605164#9 416605164#10 416605164#11 416605164#12 416605164#13 416605164#14 416605164#15 416605164#16 416605164#17 416605164#18 416605164#19 382508033#4 382508033#5 784032537#0 784032537#1 784032537#2 784032537#3 784032537#4 784032537#5 784032537#6 784032537#7 784032538#0 784032538#1 784032538#2 784032538#3 784032538#4 784032538#5 784032538#6 784032538#7 133974956#0 133974956#1 133974956#2 221411922#0 221411922#1"/>
    </vehicle>
    <vehicle id="41" depart="41.00">
        <route edges="133794140#4 133794140#5 133794140#6 133794140#7 133794140#8 133794140#9 133794140#10 715740210#0 715740210#1 701841243#2 539520059 133794294 133793719#6 133793719#7 133793719#0 133793719#1 133793719#2 133793175#0 133793175#1 133793175#2 133793175#3 133793175#4 133793175#5 133793175#6 133793175#7 995903311#1 133794131#0 133794131#1 133794131#2 133793727#0 133793906#0 133793906#1 133793906#2 133793668 569790079#1 569790079#2 133973520#1 133973520#2 133973520#3 133973520#4 221413238#0 221413238#1 221413238#2 221413238#3 539032285 221413270#0 221413270#1 221413270#2 221413270#3 221413270#4 221413270#5 221413270#6"/>
    </vehicle>
    <vehicle id="42" depart="42.00">
        <route edges="38095421#20 -221410951#16 -221410951#15 -221410951#14 -221410951#13 -221410951#12 -221410951#11 -221410951#10 221411511#0 221411511#1 221411511#2 221411511#3 221411511#4 221411511#5 221411511#6 221411511#7 221411511#8 111220514#5 111220514#6 111220514#7 111220514#8 657132777 111220512#1 111220512#2 111221656#0 111221656#1 111221656#2 111221656#3 111221656#4 111221656#5 111221656#6"/>
    </vehicle>
    <vehicle id="43" depart="43.00">
        <route edges="-133793455 133794101#2 133794101#3 133794101#4 133794101#5 133794101#6 701841244 701841243#0 133963272#0 133963272#1 -133794140#10 -133794140#9 -133794140#8 -133794140#7 -133794140#6 -133794050#2 -989819597"/>
    </vehicle>
    <vehicle id="44" depart="44.00">
        <route edges="569576534 221410949#8 269654191 53447886#3 53447886#4 53447886#5 53447886#6 53447886#7 53447886#8 53447886#9 53447886#10 266899710 266899333#1 266899333#2 413583321 779862593#1 413587591 266899333#9 266899333#10 266899333#11"/>
    </vehicle>
    <vehicle id="45" depart="45.00">
        <route edges="111221637#1 111221637#2 -111221651 111221643#3 111221643#4 111221643#5 111221643#6 111221643#7 111221643#8 111221643#9 38095421#10 38095421#11 38095421#12 38095421#13 38095421#14 38095421#15 38095421#16 38095421#17 38095421#18 38095421#19 38095421#20 38095421#21 38095421#22 38095421#23 38095421#24 38095421#25 266901379 221410949#1 221410949#2 221410949#3 221410949#4 221410949#5 221410949#6 221410949#7 221410949#8 221410949#9 925886772#0 925886772#1 958828778 958828780 958828785 958828772#2 958828772#3 783932761#0 783932761#1 783932761#2 783932761#3 783932761#4 783932761#5 783932761#6 221411072#0 221411072#1 221411072#2 221411072#3 221411072#4 221410947#3 221411066#0 221411066#1 221411066#2 221411066#3 221411066#4 221411066#5 221411066#6"/>
    </vehicle>
    <vehicle id="46" depart="46.00">
        <route edges="-221411509#0 38095421#17 38095421#18 38095421#19 38095421#20 38095421#21 38095421#22 38095421#23 38095421#24 38095421#25 266901379 221410949#1 221410949#2 221410949#3 269654189 266899332#1 266899332#2 269654762 269654760 784032541#0 569576533 784032540#5 784032540#6 269657867#0 269657867#1 269657867#2 269657867#3 269657867#4 269657867#5 269657867#6 1243590448#0 1243590448#1"/>
    </vehicle>
    <vehicle id="47" depart="47.00">
        <route edges="111221636#5 783932765#7 783932765#8 783932765#9 783932765#10 783932765#11 783932765#12 1301530399 38095421#5 38095421#6 38095421#7 38095421#8 710724375 40639444#1 40639444#2 40639444#3 266895876 38095421#23 221411039#0 221411039#1 221411039#2 221411039#3 221411039#4 -221411030#0 -221411069#2 -221411069#1 -221411069#0"/>
    </vehicle>
    <vehicle id="48" depart="48.00">