<?xml version="1.0" encoding="UTF-8"?>

<!-- generated on 2025-04-19 20:06:00 by Eclipse SUMO duarouter Version 1.20.0
<configuration xmlns:xsi="http://www.w3.org/2001/XMLSchema-instance" xsi:noNamespaceSchemaLocation="http://sumo.dlr.de/xsd/duarouterConfiguration.xsd">

    <input>
        <net-file value="ksu.net.xml"/>
        <route-files value="ksu.trips.xml"/>
    </input>

    <output>
        <output-file value="ksu.rou.xml"/>
    </output>

    <report>
        <ignore-errors value="true"/>
    </report>

</configuration>
-->

<routes xmlns:xsi="http://www.w3.org/2001/XMLSchema-instance" xsi:noNamespaceSchemaLocation="http://sumo.dlr.de/xsd/routes_file.xsd">
    <vehicle id="0" depart="0.00">
        <route edges="221411529#0 221411535 -221411516#6 -221411516#5 -221411516#4 -221411518 958828776#10 958828776#11 958828776#12 1304594033 1304594032#0 1304594032#1 1304594032#2 1304594032#3 1304594032#4 1304594032#5 382508037#0 221411945#0 221411945#1 221411945#2 221411945#3 221411945#4 111220513#9 111220513#10 111220513#11 111220513#12 111220513#13 111220513#14 783932765#4 416605141 713369661#1 636313139 783932765#10 783932765#11 -111223939 -111223908#2 -111223908#1"/>
    </vehicle>
    <vehicle id="1" depart="1.00">
        <route edges="-41457271#0 40940165#1 539906636 -263489953#4 539866356 263489959#0 263489959#1 -263489956#3 -263489956#2 -539866276 -221411014#2 -221411068#2 -221411068#1 -221411068#0 -263489966#1 -263489966#0 221410980#0 221410980#1 221410980#2 221410980#3 221410980#4 783932760#1 783932760#2 925886771#0 925886771#1 925886771#2 958828774 958828783 958828775 958828776#0 958828776#1 958828776#2 958828776#3 958828776#4 958828776#5 958828776#6 958828776#7 958828776#8 958828776#9 958828776#10 958828776#11 958828776#12 1304594033 1304594032#0 1304594032#1 1304594032#2 1304594032#3 1304594032#4 1304594032#5 382508037#0 382508037#1 382508037#2 718836997#0 718836997#1 416605164#18 416605164#19 416605164#20 416605164#21 416605164#22 416605164#23 416605164#24 416605164#25 416605164#26 416605164#27 416605164#28 221413273#0 221413273#1 221413273#2 221413273#3"/>
    </vehicle>
    <vehicle id="3" depart="3.00">
        <route edges="636313137#4 133793732#2 133793727#2 133793727#3 133793727#4 133793727#5 133793270#0 133793270#1 995903311#3 995903311#4 995903311#5 133794250#0 133794250#1 133794250#2 133794250#3 133794250#4 133794250#5 133794250#6 133793907#4 133793907#0 133793870 502469671#7 -133793633 701841243#0 133963272#0 133963272#1 -133794140#7 -133794140#6 -133794140#5 -133793170#4 -133793170#3 -133793170#2 -133793170#1 -133794089 -133793783 -133794209 -133794281"/>
    </vehicle>
    <vehicle id="4" depart="4.00">
        <route edges="111244796 -111244800#3 416605159 -111244794#3 -111244794#2 -111244794#1 -111244794#0 416605164#12 416605164#13 416605164#14 416605164#15 678564273 783932765#2 783932765#3 783932765#4 416605141 713369661#1 636313139 783932765#10 -111223919#7 -111223919#6 -111223919#5 -111223919#4"/>
    </vehicle>
    <vehicle id="6" depart="6.00">
        <route edges="-111221657#1 -111221657#0 -111221642#10 -111221637#4 -111221637#3 -111221637#2 -111221637#1 -111221637#0 111221641#1 -539484996 111220513#8 111220513#9 221411946#0 221411946#1 221411946#2 221411946#3 221411946#4 221411946#5 382508037#2 678554422 784032537#0 784032537#1 784032537#2 784032537#3 784032537#4 1243583700 776199462#0 221411941#0 221411941#1 221411941#2 221411962#4 221411962#5 1243583697 221411876#4 221411876#5 221411876#6 221411876#7 221411964#0 -221411936#2"/>
    </vehicle>
    <vehicle id="7" depart="7.00">
        <route edges="221411877#1 784032537#0 784032537#1 784032537#2 784032537#3 784032537#4 784032537#5 784032537#6 784032537#7 784032538#0 784032538#1 784032538#2 784032538#3 784032538#4 784032538#5 784032538#6 784032538#7 784032538#8 784032538#9 784032538#10 784032538#11 784032538#12 784032538#13 784032538#14 784032538#15 784032538#16 784032538#17 784032538#18 784032538#19 784032538#20 784032538#21 784032538#22 784032538#23 784032538#24 784032538#25 569571504 569571505 958828776#0 958828776#1 -221411002#2 -221411002#1 221410945#4 -221411031#1 -221411031#0 -221411041#1 221411057#0 221411057#1 221411057#2 221411057#3 -221411003#2 -221411003#1 221410984"/>
    </vehicle>
    <vehicle id="8" depart="8.00">
        <route edges="-263489953#3 -263489964 -263489955#3 -263489962 -263489958#1 -263489961 -263489956#2 -539866276 -221411014#2 -221411068#2 -221411068#1 -221411068#0 -263489966#1 -263489966#0 221410980#0 221410980#1 221410980#2 221410980#3 221410980#4 783932760#1 269655046 221411080#2 784032540#0 221410993#0 221410993#1 -221411061#4"/>
    </vehicle>
    <vehicle id="9" depart="9.00">
        <route edges="416605164#15 678564273 783932765#2 783932765#3 783932765#4 783932765#5 783932765#6 783932765#7 -111221642#16 -111221642#15 -111221642#14 -111221642#13 111221653#0 111221634"/>
    </vehicle>
    <vehicle id="10" depart="10.00">
        <route edges="41457272 -41457271#0 40940165#1 539906636 -263489953#4 539866356 263489959#0 263489959#1 -263489956#3 -263489956#2 -539866276 -221411014#2 -221411068#2 -221411068#1 -221411068#0 -263489966#1 -263489966#0 221410980#0 -539866358#1 263489971"/>
    </vehicle>
    <vehicle id="11" depart="11.00">
        <route edges="-989819590 133793183#0 990252384 133793752 133794115#3 133794101#6 701841244 701841243#0 701841243#1 701841243#2 539520059 133794294 133793719#6 133793719#7 133793719#0 569897247#0 569897247#1 569897247#2 569897247#3 269658540#4 269658540#5 269658540#6 269658540#7 269658540#8 269658540#9 269658540#10 269658540#11 269658540#12 269658540#13 269658540#14 269658542#0 269658542#1 1243579339#0 1243579339#1 1243579338 269657867#2 269657867#3 221411061#0 221411061#1 221411061#2 221411061#3 221411078#0 -221411059#2 -221411064#2 221411001#0 221411001#1 221410993#7 -221411062#3 -221411062#2 -221411062#1 -221410985 -221411065#2 -221411065#1 -221411065#0"/>
    </vehicle>
    <vehicle id="12" depart="12.00">
        <route edges="816288816#0 816288817 816270973#1 816270973#2 221413272#2 1305933949 221413270#1 221413270#2 221413270#3 221413270#4 221413270#5 221413270#6 221413270#7 221413270#8 406854313#2 406854313#3 784032536 406854311 159182931 784032538#0 784032538#1 784032538#2 784032538#3 784032538#4 784032538#5 784032538#6 784032538#7 784032538#8 784032538#9 784032538#10 784032538#11 784032538#12 784032538#13 784032538#14 784032538#15 784032538#16 784032538#17 784032538#18 784032538#19 784032538#20 784032538#21 784032538#22 784032538#23 784032538#24 784032538#25 569571504 958828781 569571502 958828782 958828779#0 958828779#1 958828779#2 53447886#2 53447886#3 53447886#4 53447886#5 -53447885#3 -53447885#2 -53447885#1 -53447885#0 -53447887#6 -88345505 -88345495#4 -88345495#3"/>
    </vehicle>
    <vehicle id="13" depart="13.00">
        <route edges="-221410951#2 -221410951#1 -221410945#8 -221410945#7 -221410945#6 -221410945#5 -221410945#4 -221410945#3 -221410945#2 -221410945#1"/>
    </vehicle>
    <vehicle id="14" depart="14.00">
        <route edges="539292347#2 221411011#1 221411011#2 221411053#0 221411053#1 221411053#2 -221410993#3 221411059#0 221411059#1 221411059#2 221411078#1"/>
    </vehicle>
    <vehicle id="15" depart="15.00">
        <route edges="416605164#0 416605164#1 416605164#2 416605164#3 416605164#4 416605164#5 416605164#6 1132178741 181124268#1 181124268#2 159182902 713369663#0 678550117 416605164#23 416605164#24 416605164#25 416605164#26 416605164#27 416605164#28 416605164#29 569790082 713369663#2 991887360 991887361 569790080 133973488#1 539502453#0 539502453#1 539502453#2 539502453#3 539502453#4 539502453#5 539502453#6 539502453#7 539502453#8 539502453#9 539502453#10 539502453#11 539502453#12 539502453#13 539502453#14 539502453#15 608060527 300798395#5 300798395#6 192514858#0 192514858#1 192514858#2 192514858#3 192514858#4 192514858#5 192514858#6 300801469#0 300801469#1"/>
    </vehicle>
    <vehicle id="16" depart="16.00">
        <route edges="160652489 40639444#0 40639444#1 266895635 38095421#12 38095421#13 111220512#0 111220512#1 111220512#2 111220512#3 111220512#4 111220512#5 111220512#6 111220512#7 111220512#8 958828776#12 1304594033 1304594032#0 1304594032#1 1304594032#2 1304594032#3 1304594032#4 1304594032#5 382508037#0 382508037#1 382508037#2 718836997#0 718836997#1 416605164#18 416605164#19 416605164#20 416605164#21 416605164#22 416605164#23 416605164#24 416605164#25 416605164#26 416605164#27 416605164#28 416605164#29 569790082 713369663#2 991887360 133794033 133793923#0 133793923#1 133793732#0 1311808790#0 539502445#0 539502445#1 539502445#2 539502445#3 989819627#0 989819627#1 989819627#2"/>
    </vehicle>
    <vehicle id="17" depart="17.00">
        <route edges="111220513#14 783932765#4 416605141 713369661#1 636313139 783932765#10 783932765#11 783932765#12 1301530399 38095421#5 38095421#6 38095421#7 38095421#8 38095421#9 38095421#10 38095421#11 38095421#12 38095421#13 38095421#14 38095421#15 38095421#16 38095421#17 38095421#18 38095421#19 38095421#20 -221410951#16 -221410951#15 -221410951#14 -221410951#13 -221410951#12 -221410951#11 -221410951#10 -221410951#9 221411037#0 221411037#1 221410995#13"/>
    </vehicle>
    <vehicle id="18" depart="18.00">
        <route edges="53447887#3 53447880#0 53447880#1 53447880#2 53447886#7 53447886#8 266901380 221410949#2 221410949#3 221410949#4 -221411030#3 -221411030#2 -221411030#1 -221411030#0 221411069#3 -221411033#1 -221411033#0 -221410995#16 -221411028#1 -221411028#0 -221410951#10 221411511#0 221411511#1 221411511#2 221411511#3 221411511#4 -221411538 221411528#4"/>
    </vehicle>
    <vehicle id="19" depart="19.00">
        <route edges="539918130#1 569584469#1 1027367940#0 1243579341#0 1243579341#1 -539886369#2 -539886369#1 -221411006#2 -221411052#2 -221411052#1 -221411052#0 221410944#3 221411042#0"/>
    </vehicle>
    <vehicle id="20" depart="20.00">
        <route edges="221413271#2 -1034093901 539032269#3 539032269#4 1034093897 -1034093899 1305671591#1 -221413273#4 -221413273#3 -221413273#2 -221413273#1 -221413273#0 416605164#29 569790082 713369663#2 991887360 991887361 569790080 133973488#1 539502453#0 539502453#1 539502453#2 539502453#3 539502453#4 539502453#5 539502453#6 539502453#7 539502453#8 539502453#9 539502453#10 539502453#11 539502453#12 539502453#13 539502453#14 539502453#15 608060527 300798395#5 300801484 1301535122#0"/>
    </vehicle>
    <vehicle id="21" depart="21.00">
        <route edges="269587140#1 269587140#2 269587140#3 269587140#4 269587140#5 783932763#0 783932763#1 783932763#2 783932763#3 783932763#4 783932763#5 783932763#6 783932763#7 569568483 502469668#0 502469668#1 958828784 958828774 958828783 958828775 958828776#0 958828776#1 958828776#2 958828776#3 958828776#4 958828776#5 958828776#6 958828776#7 958828776#8 958828776#9 958828776#10 958828776#11 958828776#12 1304594033 1304594032#0 1304594032#1 1304594032#2 1304594032#3 1304594032#4 1304594032#5 382508037#0 382508037#1 382508037#2 718836997#0 718836997#1 416605164#18 416605164#19 416605164#20 416605164#21 416605164#22 416605164#23 1352024560#0 1352024560#1 539032263#0 539032263#1 221413231#0 -678541445#3 -678541445#2 -678541445#1 -1305742532#2 -1305742532#1 -1305742532#0 221413270#5 221413270#6 539032276 -539032275#0 -539032274#0"/>
    </vehicle>
    <vehicle id="22" depart="22.00">
        <route edges="133794274 -989819599#1 133794050#0 133794050#1 133794050#2 133794140#3 133794140#4 133794140#5 133794140#6 133794140#7 715740210#0 715740210#1 701841243#2 539520059 133794294 133793719#6 133793719#7 133793719#0 569897247#0 569897247#1 569897247#2 569897247#3 269658540#4 269658540#5 269658540#6 269658540#7 269658540#8 269658540#9 269658540#10 269658540#11 269658540#12 269658540#13 269658540#14 269658542#0 269658542#1 1243579339#0 1243579339#1 1243579338 269657867#2 269657867#3 221411061#0 221411061#1 221411061#2 221411061#3 221411061#4 -1244510957 221410969#1 -221411076#1 -221411076#0 1243590449#0 1243590449#1 569571504 958828781 569571502 958828782 958828779#0 958828779#1 958828779#2 53447886#2 53447886#3 53447886#4 53447886#5 -53447885#3 -53447885#2 -53447885#1 -53447885#0 -53447887#6 -88345505 88345495#5 297811330 -269587140#0"/>
    </vehicle>
    <vehicle id="23" depart="23.00">
        <route edges="221410989#0 221410989#1 221410989#2 -263489966#1 -263489966#0 221410980#0 221410980#1 221410980#2 221410980#3 221410980#4 783932760#1 783932760#2 925886771#0 925886771#1 925886771#2 958828774 958828782 958828779#0 958828779#1 958828779#2 53447886#2 53447886#3 53447886#4 53447886#5 -53447885#3 -53447885#2 -53447885#1 53447876"/>
    </vehicle>
    <vehicle id="24" depart="24.00">
        <route edges="221411520#1 221411520#2 221411511#7 221411511#8 111220514#5 111220514#6 111220514#7 111220514#8 657132777 111220512#1 111220512#2 111220512#3 111220512#4 111220512#5 111220513#0 111220513#1 111220513#2 111220513#3 111220513#4 111220513#5 111220513#6 111220513#7 111220513#8 111220513#9 111220513#10 -1304601293 111220510#5"/>
    </vehicle>
    <vehicle id="25" depart="25.00">
        <route edges="111220510#14 111220510#15 111220510#16 539502464 1304594032#0 1304594032#1 1304594032#2 1304594032#3 1304594032#4 1304594032#5 382508037#0 382508037#1 382508037#2 678554422 784032537#0 784032537#1 784032537#2 784032537#3 784032537#4 784032537#5 784032537#6 784032537#7 784032538#0 784032538#1 784032538#2 784032538#3 784032538#4 784032538#5 784032538#6 784032538#7 133974956#0 133974956#1 133974956#2 133974956#3 133974956#4 133974956#5 -221411955#5 -221411955#4 -221411955#3"/>
    </vehicle>
    <vehicle id="26" depart="26.00">
        <route edges="-41457173 41457184#3 41457184#4 41457184#5 41457184#6 -41457180#2 -41457180#1 -41457180#0 159182881#3 159182881#4 159182881#5 783932763#0 783932763#1 783932763#2 783932763#3 783932763#4 783932763#5 783932763#6 783932763#7 569568483 502469668#0 502469668#1 958828784 958828774 958828783 958828775 958828776#0 958828776#1 958828776#2 958828776#3 958828776#4 958828776#5 958828776#6 958828776#7 958828776#8 958828776#9 958828776#10 958828776#11 958828776#12 1304594033 1304594032#0 1304594032#1 1304594032#2 1304594032#3 1304594032#4 1304594032#5 382508037#0 382508037#1 382508037#2 718836997#0 718836997#1 416605164#18 416605164#19 416605164#20 416605164#21 416605164#22 416605164#23 416605164#24 416605164#25 416605164#26 416605164#27 416605164#28 416605164#29 416605164#30 133973520#0 133973520#1 133973520#2 133973520#3 133973520#4 221413238#0 221413238#1 221413238#2 221413238#3 221413238#4 221413238#5 221413238#6 569788808#2 648917236#0 648917236#1 816288819#0 816288819#1 -667512508#3 -667512508#2 816268400#1 816268398#7"/>
    </vehicle>
    <vehicle id="27" depart="27.00">
        <route edges="221411876#2 221413198#0 221413198#1 -221413219#2 -221413219#1 -221413219#0 382508031#6 382508031#7 382508031#8 1243581696 382508030#3 713369662 713369661#0 713369661#1 636313139 783932765#10 783932765#11 783932765#12 1301530399 38095421#5 38095421#6 38095421#7 38095421#8 38095421#9 38095421#10 38095421#11 38095421#12 38095421#13 38095421#14 38095421#15 38095421#16 38095421#17 38095421#18 38095421#19 38095421#20 -221410951#16 -221410951#15 -221410951#14 -221410951#13 -221410951#12 -221410951#11 -221410951#10 221411511#0 221411511#1 221411511#2"/>
    </vehicle>
    <vehicle id="28" depart="28.00">
        <route edges="-221411530#1 -221411530#0 221410951#14 221410951#15 221410951#16 38095421#21 38095421#22 38095421#23 38095421#24 38095421#25 266901379 221410949#1 221410949#2 221410949#3 269654189 266899332#1 266899332#2 269654762 269654760 784032541#0 569576533 784032540#5 269661880 221410946#3 221410946#4 221410946#5 221410946#6 221410944#0 221411058#0 221411058#1 221411058#2 221411058#3 1243579341#3 1243579341#4 1243579330#0 1243579330#1 1243579331#0 1243579331#1 1036797580#4 1036797580#5 192514862#0 192514862#1 -192514858#9 -192514858#8 -192514858#7 -192514858#6 300801468"/>
    </vehicle>
    <vehicle id="29" depart="29.00">
        <route edges="-221411522 -221410951#11 -221410951#10 221411511#0 221411511#1 221411511#2 221411511#3 221411511#4 221411511#5 221411511#6 221411511#7 221411511#8 111220514#5 111220514#6 111220514#7 111220514#8 657132777 111220512#1 111220512#2 111220512#3 111221642#0 111221642#1"/>
    </vehicle>
    <vehicle id="30" depart="30.00">
        <route edges="990252374#4 636147925#2 636147918#1 636147918#2 636147918#3 133794203#4 133794203#5 681873198 133793175#1 133793175#2 133793175#3 133793175#4 133793175#5 133793175#6 133793175#7 995903311#1 133794131#0 133794131#1 133794131#2 133793727#0 133793906#0 133793906#1 133793906#2 133793668 382508030#0 382508030#1 1243386361 382508031#5 382508031#6 382508031#7 382508031#8 382508031#9 221411876#0 221411876#1 221411876#2 221411876#3 221411876#4 221411876#5 221411876#6 221411876#7 221411876#8 221411876#9 221411876#10 221411876#11 133974956#5 133974956#6 133974956#7 -221411880 221411911#1"/>
    </vehicle>
    <vehicle id="31" depart="31.00">
        <route edges="221410949#4 221410949#5 221410949#6 221410949#7 221410949#8 221410949#9 925886770#0 925886770#1 925886770#2 958828776#1 958828776#2 958828776#3 958828776#4 958828776#5 958828776#6 958828776#7 958828776#8 958828776#9 958828776#10 958828776#11 958828776#12 1304594033 1304594032#0 1304594032#1 1304594032#2 1304594032#3 1304594032#4 1304594032#5 382508037#0 382508037#1 382508037#2 718836997#0 718836997#1 416605164#18 416605164#19 416605164#20 416605164#21 416605164#22 416605164#23 1352024560#0 1352024560#1 539032263#0 539032263#1 221413231#0 -678541445#3 -678541445#2 -678541445#1 -1305742532#2 -1305742532#1 -1305742532#0 221413270#5 221413270#6 221413270#7"/>
    </vehicle>
    <vehicle id="32" depart="32.00">
        <route edges="-539032281#1 -539032281#0 406854313#3 784032536 406854311 159182931 784032538#0 784032538#1 784032538#2 784032538#3 784032538#4 784032538#5 784032538#6 784032538#7 784032538#8 784032538#9 784032538#10 784032538#11 784032538#12 784032538#13 784032538#14 784032538#15 784032538#16 784032538#17 784032538#18 784032538#19 784032538#20 784032538#21 784032538#22 784032538#23 784032538#24 784032538#25 569571504 958828781 569571502 958828782 958828780 958828785 958828772#2 958828772#3 783932761#0 783932761#1 783932761#2 783932761#3 783932761#4 783932761#5 783932761#6 783932761#7 783932761#8 783932761#9 783932762#0 783932762#1 783932762#2 783932762#3 783932762#4 39452632#0 39452632#1 39452632#2"/>
    </vehicle>
    <vehicle id="33" depart="33.00">
        <route edges="297811324 53447880#1 53447880#2 53447886#7 53447886#8 266901380 221410949#2 -221411044#2 -644506286#1 -644506286#0 221411071 39002853#1 39002853#2 39002853#3 39002853#4 39002853#5 39002853#6 39002853#7 39002853#8 39002853#9 39002853#10 39002853#11 39002853#12 39002853#13 39002853#14 39002853#15 39002853#16 39002853#17 569565030 38095421#7 1091192462 -111223917#3 -111223917#2 111223938#0 111223938#1"/>
    </vehicle>
    <vehicle id="34" depart="34.00">
        <route edges="-660877183#0 -221411963#1 -221411963#0 111220511#3 111220511#4 111220511#5 111220511#6 111220511#7 111220511#8 111220511#9 111220511#10 111220511#11 111220511#12 38095421#13 38095421#14 38095421#15 38095421#16 38095421#17 38095421#18 38095421#19 38095421#20 38095421#21 38095421#22 38095421#23 38095421#24 38095421#25 266901379 221410949#1 221410949#2 221410949#3 221410949#4 221410949#5 221410949#6 221410949#7 221410949#8 269654191 53447886#3 53447886#4 53447886#5 53447886#6 -53447880#2 -53447880#1 -53447880#0 53447887#4 539857434#0 539857434#1 539857434#2 539857434#3 539857434#4 -1118245276 40940185#2 40940170#0 1304214967 40940187#1 -41457184#7 -41457184#6 -41457184#5 -41457184#4 -41457172#1 -41457172#0 -41457183#1"/>
    </vehicle>
    <vehicle id="35" depart="35.00">
        <route edges="221411963#6 221411959#3 221411959#4 221411959#5 111220513#6 111220513#7 111220513#8 111220513#9 221411946#0 221411946#1 221411946#2 221411946#3 221411946#4 221411946#5 382508037#2 718836997#0 718836997#1 416605164#18 416605164#19 416605164#20 416605164#21 416605164#22 416605164#23 416605164#24 416605164#25 416605164#26 416605164#27 416605164#28 416605164#29 416605164#30 133973520#0 133973520#1 133973520#2 133973520#3 133973520#4 221413238#0 221413238#1 221413238#2 221413238#3 221413238#4 221413238#5 221413238#6 569788808#2 648917236#0 648917236#1 816288819#0 816288819#1 -667512508#3 -667512508#2 -667512508#1 -667512508#0 667512509#5 667512509#0 667512509#1 667512510#0 667512510#1 -667512507#1 -667512507#0 816270974#0 816270974#1 816270974#2"/>
    </vehicle>
    <vehicle id="36" depart="36.00">
        <route edges="593399208 539502453#9 539502453#10 539502453#11 539502453#12 539502453#13 539502453#14 539502453#15 539502453#16 961907809 1036797580#0 1036797580#1 1243579344#0 1243579344#1 1243579344#2 1243579344#3 1243579344#4 221410946#2 569576531 269657037#1 783932759 269654761 269654763#0 269654763#1 269654190 53447886#8 266901380 221410949#2 221410949#3 221410949#4 -221411030#3 -644506286#4 -644506286#3"/>
    </vehicle>
    <vehicle id="37" depart="37.00">
        <route edges="221411903#0 -660877182 -221411960#3 -221411965#0 111221643#7 111221643#8 111223917#0"/>
    </vehicle>
    <vehicle id="38" depart="38.00">
        <route edges="713369662 713369661#0 713369661#1 636313139 783932765#10 783932765#11 783932765#12 710724376#0 710724376#1 39231079#1 416605164#1 416605164#2 416605164#3 416605164#4 416605164#5 416605164#6 1132178741 181124268#1 181124268#2 159182902 713369663#0 678550117 416605164#23 416605164#24 416605164#25 416605164#26 416605164#27 416605164#28 416605164#29 569790082 713369663#2 991887360 133794033 133793923#0 133793923#1 133793732#0 133793732#1 133793732#2 133793727#2 133793727#3 133793727#4 133793727#5 133793270#0 133793270#1 995903311#3 995903311#4 995903311#5 133794250#0 133794250#1 133794250#2 133794250#3 133794250#4 133794250#5 133794250#6 133793907#4 133793907#0 133793870 502469671#7 -133793633 701841243#0 133963272#0 133963272#1 -133794140#7 -133794140#6 -133794140#5 -133793170#4 -133793170#3 -133793170#2 -133793170#1 -133793170#0"/>
    </vehicle>
    <vehicle id="40" depart="40.00">
        <route edges="221410951#9 221410951#10 221411028#0 221411028#1 221410995#16 221411033#0 221411033#1 -221411069#3 221411030#0 221411030#1 221411030#2 221411030#3 221410949#5 221410949#6 221410949#7 221410949#8 269654191 53447886#3 53447886#4 53447886#5 53447886#6 -53447880#2 -53447880#1 -53447880#0 53447887#4 539857434#0 539857434#1 539857434#2 539857434#3 539857434#4 -1118245276 40940185#2 40940170#0 1304214967 40940187#1 -41457184#7 -41457184#6 -41457184#5 -41457184#4 -41457184#3 -41457184#2 -41457184#1 -41457165#1"/>
    </vehicle>
    <vehicle id="41" depart="41.00">
        <route edges="221411011#3 1243590449#0 1243590449#1 569571504 569571505 958828776#0 958828776#1 958828776#2 958828776#3 958828776#4 958828776#5 958828776#6 958828776#7 958828776#8 958828776#9 958828776#10 958828776#11 958828776#12 1304594033 1304594032#0 1304594032#1 1304594032#2 1304594032#3 1304594032#4 1304594032#5 382508037#0 382508037#1 382508037#2 718836997#0 718836997#1 416605164#18 416605164#19 416605164#20 416605164#21 416605164#22 416605164#23 1352024560#0 1352024560#1 539032263#0 539032263#1 221413231#0 221413231#1 -1305742529 -679408147#1"/>
    </vehicle>
    <vehicle id="42" depart="42.00">
        <route edges="111221657#1 -111221656#10 -111221656#9 -111221656#8 -111221643#4 -111221643#3 -111221643#2 -111221643#1 -111221643#0 111220513#7 111220513#8 111220513#9 221411946#0 221411946#1 221411946#2 221411946#3 221411946#4 221411946#5 382508037#2 678554422 784032537#0 221411932#0 221411932#1 221411932#2 221411937#1 -221411940#1 -221411878#1 660877177#0 660877177#1 221411962#7 -1307001643 221411876#1 221411876#2 221413198#0 221413198#1"/>
    </vehicle>
    <vehicle id="43" depart="43.00">
        <route edges="-994922069#0 -1311808789 636313137#0 636313137#1 636313137#2 636313137#3 636313137#4 133793732#2 133793727#2 133793727#3 133793727#4 133793727#5 133793727#6 133793727#0 133793906#0 133793906#1 133793906#2 133793668 382508030#0 382508030#1 1243386361 382508031#5 382508031#6 382508031#7 382508031#8 382508031#9 221411876#0 221411876#1 221411876#2 221411876#3 221411876#4 221411876#5 221411876#6 221411876#7 221411876#8 221411876#9 221411876#10 221411876#11 133974956#5 133974956#6"/>
    </vehicle>
    <vehicle id="44" depart="44.00">
        <route edges="221410951#0 -221410945#8 -221410945#7 -221410945#6 -221410945#5 -221411031#1 -221411031#0 221411041#2 221411041#3 221411041#4 221410949#8 221410949#9 925886772#0 925886772#1 958828778 958828780 958828784 958828773 958828770#0 958828770#1 221411080#2 569576532 784032541#0 784032541#1 269657036 1036797579 1040514176 269657869#0 269657869#1 681871750 269658540#4 269658540#5 269658540#6 269658540#7 269658540#8 269658540#9 269658540#10 1301535127 1301535128#1"/>
    </vehicle>
    <vehicle id="45" depart="45.00">
        <route edges="-221410995#7 -221410995#6 -221410995#5 221411016#0 221411016#1 -221411073#3 221411041#0 221411041#1 221411041#2 221411041#3 221411041#4 221410949#8 221410949#9 925886772#0 925886772#1 958828778 958828780 958828784 958828773 958828770#0 958828770#1 221411080#2 569576532 784032541#0 569576533 784032540#5 784032540#6 269657867#0 269657867#1 269657867#2 269657867#3 269657867#4 269657867#5 269657867#6 269657867#7 269657867#8 269657867#9 269657867#10 539502456#1 539502456#2 539502456#3 539502456#4 539502456#5 539502456#6 221411875#0"/>
    </vehicle>
    <vehicle id="46" depart="46.00">
        <route edges="40940170#1 159182881#5 783932763#0 783932763#1 783932763#2 783932763#3 783932763#4 783932763#5 783932763#6 783932763#7 569568483 502469668#0 502469668#1 958828784 958828774 958828783 958828775 958828776#0 958828776#1 958828776#2 958828776#3 958828776#4 958828776#5 958828776#6 958828776#7 958828776#8 958828776#9 958828776#10 958828776#11 958828776#12 1304594033 1304594032#0 1304594032#1 1304594032#2 1304594032#3 1304594032#4 1304594032#5 382508037#0 382508037#1 382508037#2 718836997#0 718836997#1 718836997#2 783932766#0 783932766#1 111232122#0 111232122#1 111232141#6 678576721 111232145#1 111232145#2 678575064 -111244794#2 111244803#0 111244803#1 111244803#2 111236652#1 111244805#0"/>
    </vehicle>
    <vehicle id="47" depart="47.00">
        <route edges="-1305735017 -1305726340 1305726338#1 902203114#9 902203114#10 902203114#11 902203115#9 902203115#10 382508033#2 382508033#3 382508033#4 718836994#1 718836994#2 783932765#1 783932765#2 783932765#3 783932765#4 783932765#5 783932765#6 783932765#7 -111221642#16 -111221642#15 -111221642#14 -111221642#13 -111221642#12 -111221642#11 -111221642#10 -111221642#9 -111221642#8 -111221642#7 -111221642#6 -111221642#5"/>
    </vehicle>
    <vehicle id="48" depart="48.00">
        <route edges="994922067 994922063#2 994922065#0 1243579330#1 1243579331#0 1243579331#1 1036797580#4 1036797580#5 1036797580#6 1036797580#7 269657869#0 269657869#1 681871750 269658540#4 269658540#5 269658540#6 269658540#7 269658540#8 269658540#9 269658540#10 269658540#11 269658540#12 269658540#13 269658540#14 269658542#0 269658542#1 1243579339#0 1243579339#1 1243579338 269657867#2 269657867#3 221411061#0 221411061#1 221411061#2 221411061#3 221411061#4 -1244510957 221410969#1 -221411076#1 -221411076#0 1243590449#0 1243590449#1 569571504 569571505 958828776#0 958828776#1 -221411002#2 -221411002#1 -221410945#3 -221410945#2"/>
    </vehicle>
    <vehicle id="49" depart="49.00">
        <route edges="958828776#3 221411073#0 221411073#1 221411073#2 221411041#0 221411041#1 221411041#2 221411041#3 221411041#4 221410949#8 221410949#9 925886772#0 925886772#1 958828778 958828780 958828784 958828773 958828770#0 958828770#1 221411080#2 569576532 784032541#0 784032541#1 269657036 1036797579 1040514176 269657869#0 269657869#1 269657869#2 569897249 784032543#3 133793473 133793719#2 133793175#0 133793175#1 133793175#2 569925860#0 569925860#1"/>
    </vehicle>
    <vehicle id="50" depart="50.00">
        <route edges="-111221637#2 -111221637#1 -111221637#0 111221641#1 -539484996 111220513#8 111220513#9 221411946#0 221411946#1 221411946#2 221411946#3 221411946#4 221411946#5 382508037#2 718836997#0 718836997#1 416605164#18 416605164#19 416605164#20 416605164#21 416605164#22 416605164#23 416605164#24 416605164#25 416605164#26 416605164#27 416605164#28 416605164#29 569790082 713369663#2 991887360 991887361 569790080 133973488#1 539502453#0 539502453#1 539502453#2 539502453#3 539502453#4 539502453#5 539502453#6 539502453#7 539502453#8 539502453#9 539502453#10 539502453#11 539502453#12 539502453#13 539502453#14 539502453#15 608060527 300798395#5 300798395#6 192514858#0 192514858#1 300798393#0"/>
    </vehicle>
    <vehicle id="51" depart="51.00">
        <route edges="221411955#1 -221411900 221411876#10 221411876#11 221411876#12 133974955#6 133974955#7 133974955#8 133974955#9 133974955#10 784032538#9 784032538#10 784032538#11 784032538#12 784032538#13 784032538#14 784032538#15 784032538#16 784032538#17 784032538#18 784032538#19 784032538#20 784032538#21 784032538#22 784032538#23 784032538#24 784032538#25 569571504 569571505 958828776#0 958828776#1 958828776#2 958828776#3 958828776#4 958828776#5 958828776#6 958828776#7 958828776#8 221410951#0 221410951#1 221410951#2 221410951#3 221410951#4 221410951#5 221410951#6 221410951#7 221410951#8 221410951#9 221410951#10 221410951#11 221410951#12 221410951#13"/>
    </vehicle>
    <vehicle id="52" depart="52.00">