<configuration>
    <input>
        <net-file value="KSU.net.xml"/>
        <route-files value="KSU.rou.xml"/>
    </input>
    <time>
        <begin value="0"/>
        <end value="1000"/>
    </time>
</configuration>
